# generated using pymatgen
data_SiO2
_symmetry_space_group_name_H-M   'P 1'
_cell_length_a   12.60699999
_cell_length_b   13.67699999
_cell_length_c   18.49700000
_cell_angle_alpha   90.00000000
_cell_angle_beta   90.00000000
_cell_angle_gamma   90.00000000
_symmetry_Int_Tables_number   1
_chemical_formula_structural   SiO2
_chemical_formula_sum   'Si48 O96'
_cell_volume   3189.36259037
_cell_formula_units_Z   48
loop_
 _symmetry_equiv_pos_site_id
 _symmetry_equiv_pos_as_xyz
  1  'x, y, z'
loop_
 _atom_site_type_symbol
 _atom_site_label
 _atom_site_symmetry_multiplicity
 _atom_site_fract_x
 _atom_site_fract_y
 _atom_site_fract_z
 _atom_site_occupancy
  Si  Si0  1  0.53690000  0.38740000  0.16640000  1.0
  Si  Si1  1  0.46310000  0.61260000  0.83360000  1.0
  Si  Si2  1  0.46310000  0.61260000  0.66640000  1.0
  Si  Si3  1  0.53690000  0.38740000  0.33360000  1.0
  Si  Si4  1  0.46310000  0.38740000  0.83360000  1.0
  Si  Si5  1  0.53690000  0.61260000  0.16640000  1.0
  Si  Si6  1  0.53690000  0.61260000  0.33360000  1.0
  Si  Si7  1  0.46310000  0.38740000  0.66640000  1.0
  Si  Si8  1  0.22890000  0.88720000  0.06060000  1.0
  Si  Si9  1  0.77110000  0.11280000  0.93940000  1.0
  Si  Si10  1  0.77110000  0.11280000  0.56060000  1.0
  Si  Si11  1  0.22890000  0.88720000  0.43940000  1.0
  Si  Si12  1  0.77110000  0.88720000  0.93940000  1.0
  Si  Si13  1  0.22890000  0.11280000  0.06060000  1.0
  Si  Si14  1  0.22890000  0.11280000  0.43940000  1.0
  Si  Si15  1  0.77110000  0.88720000  0.56060000  1.0
  Si  Si16  1  0.59580000  0.27330000  0.55210000  1.0
  Si  Si17  1  0.40420000  0.72670000  0.44790000  1.0
  Si  Si18  1  0.40420000  0.72670000  0.05210000  1.0
  Si  Si19  1  0.59580000  0.27330000  0.94790000  1.0
  Si  Si20  1  0.40420000  0.27330000  0.44790000  1.0
  Si  Si21  1  0.59580000  0.72670000  0.55210000  1.0
  Si  Si22  1  0.59580000  0.72670000  0.94790000  1.0
  Si  Si23  1  0.40420000  0.27330000  0.05210000  1.0
  Si  Si24  1  0.03690000  0.88740000  0.16640000  1.0
  Si  Si25  1  0.96310000  0.11260000  0.83360000  1.0
  Si  Si26  1  0.96310000  0.11260000  0.66640000  1.0
  Si  Si27  1  0.03690000  0.88740000  0.33360000  1.0
  Si  Si28  1  0.96310000  0.88740000  0.83360000  1.0
  Si  Si29  1  0.03690000  0.11260000  0.16640000  1.0
  Si  Si30  1  0.03690000  0.11260000  0.33360000  1.0
  Si  Si31  1  0.96310000  0.88740000  0.66640000  1.0
  Si  Si32  1  0.72890000  0.38720000  0.06060000  1.0
  Si  Si33  1  0.27110000  0.61280000  0.93940000  1.0
  Si  Si34  1  0.27110000  0.61280000  0.56060000  1.0
  Si  Si35  1  0.72890000  0.38720000  0.43940000  1.0
  Si  Si36  1  0.27110000  0.38720000  0.93940000  1.0
  Si  Si37  1  0.72890000  0.61280000  0.06060000  1.0
  Si  Si38  1  0.72890000  0.61280000  0.43940000  1.0
  Si  Si39  1  0.27110000  0.38720000  0.56060000  1.0
  Si  Si40  1  0.09580000  0.77330000  0.55210000  1.0
  Si  Si41  1  0.90420000  0.22670000  0.44790000  1.0
  Si  Si42  1  0.90420000  0.22670000  0.05210000  1.0
  Si  Si43  1  0.09580000  0.77330000  0.94790000  1.0
  Si  Si44  1  0.90420000  0.77330000  0.44790000  1.0
  Si  Si45  1  0.09580000  0.22670000  0.55210000  1.0
  Si  Si46  1  0.09580000  0.22670000  0.94790000  1.0
  Si  Si47  1  0.90420000  0.77330000  0.05210000  1.0
  O  O48  1  0.15150000  0.87480000  0.12930000  1.0
  O  O49  1  0.84850000  0.12520000  0.87070000  1.0
  O  O50  1  0.84850000  0.12520000  0.62930000  1.0
  O  O51  1  0.15150000  0.87480000  0.37070000  1.0
  O  O52  1  0.84850000  0.87480000  0.87070000  1.0
  O  O53  1  0.15150000  0.12520000  0.12930000  1.0
  O  O54  1  0.15150000  0.12520000  0.37070000  1.0
  O  O55  1  0.84850000  0.87480000  0.62930000  1.0
  O  O56  1  0.16780000  0.85350000  0.51160000  1.0
  O  O57  1  0.83220000  0.14650000  0.48840000  1.0
  O  O58  1  0.83220000  0.14650000  0.01160000  1.0
  O  O59  1  0.16780000  0.85350000  0.98840000  1.0
  O  O60  1  0.83220000  0.85350000  0.48840000  1.0
  O  O61  1  0.16780000  0.14650000  0.51160000  1.0
  O  O62  1  0.16780000  0.14650000  0.98840000  1.0
  O  O63  1  0.83220000  0.85350000  0.01160000  1.0
  O  O64  1  0.33280000  0.82060000  0.07190000  1.0
  O  O65  1  0.66720000  0.17940000  0.92810000  1.0
  O  O66  1  0.66720000  0.17940000  0.57190000  1.0
  O  O67  1  0.33280000  0.82060000  0.42810000  1.0
  O  O68  1  0.66720000  0.82060000  0.92810000  1.0
  O  O69  1  0.33280000  0.17940000  0.07190000  1.0
  O  O70  1  0.33280000  0.17940000  0.42810000  1.0
  O  O71  1  0.66720000  0.82060000  0.57190000  1.0
  O  O72  1  0.54830000  0.31960000  0.62530000  1.0
  O  O73  1  0.45170000  0.68040000  0.37470000  1.0
  O  O74  1  0.45170000  0.68040000  0.12530000  1.0
  O  O75  1  0.54830000  0.31960000  0.87470000  1.0
  O  O76  1  0.45170000  0.31960000  0.37470000  1.0
  O  O77  1  0.54830000  0.68040000  0.62530000  1.0
  O  O78  1  0.54830000  0.68040000  0.87470000  1.0
  O  O79  1  0.45170000  0.31960000  0.12530000  1.0
  O  O80  1  0.00040000  0.00000000  0.16140000  1.0
  O  O81  1  0.99960000  0.00000000  0.83860000  1.0
  O  O82  1  0.99960000  0.00000000  0.66140000  1.0
  O  O83  1  0.00040000  0.00000000  0.33860000  1.0
  O  O84  1  0.26360000  0.00000000  0.05320000  1.0
  O  O85  1  0.73640000  0.00000000  0.94680000  1.0
  O  O86  1  0.73640000  0.00000000  0.55320000  1.0
  O  O87  1  0.26360000  0.00000000  0.44680000  1.0
  O  O88  1  0.54380000  0.35510000  0.25000000  1.0
  O  O89  1  0.45620000  0.64490000  0.75000000  1.0
  O  O90  1  0.45620000  0.35510000  0.75000000  1.0
  O  O91  1  0.54380000  0.64490000  0.25000000  1.0
  O  O92  1  0.50000000  0.75960000  0.00000000  1.0
  O  O93  1  0.50000000  0.24040000  0.00000000  1.0
  O  O94  1  0.50000000  0.24040000  0.50000000  1.0
  O  O95  1  0.50000000  0.75960000  0.50000000  1.0
  O  O96  1  0.65150000  0.37480000  0.12930000  1.0
  O  O97  1  0.34850000  0.62520000  0.87070000  1.0
  O  O98  1  0.34850000  0.62520000  0.62930000  1.0
  O  O99  1  0.65150000  0.37480000  0.37070000  1.0
  O  O100  1  0.34850000  0.37480000  0.87070000  1.0
  O  O101  1  0.65150000  0.62520000  0.12930000  1.0
  O  O102  1  0.65150000  0.62520000  0.37070000  1.0
  O  O103  1  0.34850000  0.37480000  0.62930000  1.0
  O  O104  1  0.66780000  0.35350000  0.51160000  1.0
  O  O105  1  0.33220000  0.64650000  0.48840000  1.0
  O  O106  1  0.33220000  0.64650000  0.01160000  1.0
  O  O107  1  0.66780000  0.35350000  0.98840000  1.0
  O  O108  1  0.33220000  0.35350000  0.48840000  1.0
  O  O109  1  0.66780000  0.64650000  0.51160000  1.0
  O  O110  1  0.66780000  0.64650000  0.98840000  1.0
  O  O111  1  0.33220000  0.35350000  0.01160000  1.0
  O  O112  1  0.83280000  0.32060000  0.07190000  1.0
  O  O113  1  0.16720000  0.67940000  0.92810000  1.0
  O  O114  1  0.16720000  0.67940000  0.57190000  1.0
  O  O115  1  0.83280000  0.32060000  0.42810000  1.0
  O  O116  1  0.16720000  0.32060000  0.92810000  1.0
  O  O117  1  0.83280000  0.67940000  0.07190000  1.0
  O  O118  1  0.83280000  0.67940000  0.42810000  1.0
  O  O119  1  0.16720000  0.32060000  0.57190000  1.0
  O  O120  1  0.04830000  0.81960000  0.62530000  1.0
  O  O121  1  0.95170000  0.18040000  0.37470000  1.0
  O  O122  1  0.95170000  0.18040000  0.12530000  1.0
  O  O123  1  0.04830000  0.81960000  0.87470000  1.0
  O  O124  1  0.95170000  0.81960000  0.37470000  1.0
  O  O125  1  0.04830000  0.18040000  0.62530000  1.0
  O  O126  1  0.04830000  0.18040000  0.87470000  1.0
  O  O127  1  0.95170000  0.81960000  0.12530000  1.0
  O  O128  1  0.50040000  0.50000000  0.16140000  1.0
  O  O129  1  0.49960000  0.50000000  0.83860000  1.0
  O  O130  1  0.49960000  0.50000000  0.66140000  1.0
  O  O131  1  0.50040000  0.50000000  0.33860000  1.0
  O  O132  1  0.76360000  0.50000000  0.05320000  1.0
  O  O133  1  0.23640000  0.50000000  0.94680000  1.0
  O  O134  1  0.23640000  0.50000000  0.55320000  1.0
  O  O135  1  0.76360000  0.50000000  0.44680000  1.0
  O  O136  1  0.04380000  0.85510000  0.25000000  1.0
  O  O137  1  0.95620000  0.14490000  0.75000000  1.0
  O  O138  1  0.95620000  0.85510000  0.75000000  1.0
  O  O139  1  0.04380000  0.14490000  0.25000000  1.0
  O  O140  1  0.00000000  0.25960000  0.00000000  1.0
  O  O141  1  0.00000000  0.74040000  0.00000000  1.0
  O  O142  1  0.00000000  0.74040000  0.50000000  1.0
  O  O143  1  0.00000000  0.25960000  0.50000000  1.0
