# generated using pymatgen
data_SiO2
_symmetry_space_group_name_H-M   Cmcm
_cell_length_a   13.67700000
_cell_length_b   12.60700000
_cell_length_c   18.49700000
_cell_angle_alpha   90.00000000
_cell_angle_beta   90.00000000
_cell_angle_gamma   90.00000000
_symmetry_Int_Tables_number   63
_chemical_formula_structural   SiO2
_chemical_formula_sum   'Si48 O96'
_cell_volume   3189.36259368
_cell_formula_units_Z   48
loop_
 _symmetry_equiv_pos_site_id
 _symmetry_equiv_pos_as_xyz
  1  'x, y, z'
  2  '-x, -y, -z'
  3  '-x, -y, z+1/2'
  4  'x, y, -z+1/2'
  5  'x, -y, -z'
  6  '-x, y, z'
  7  '-x, y, -z+1/2'
  8  'x, -y, z+1/2'
  9  'x+1/2, y+1/2, z'
  10  '-x+1/2, -y+1/2, -z'
  11  '-x+1/2, -y+1/2, z+1/2'
  12  'x+1/2, y+1/2, -z+1/2'
  13  'x+1/2, -y+1/2, -z'
  14  '-x+1/2, y+1/2, z'
  15  '-x+1/2, y+1/2, -z+1/2'
  16  'x+1/2, -y+1/2, z+1/2'
loop_
 _atom_site_type_symbol
 _atom_site_label
 _atom_site_symmetry_multiplicity
 _atom_site_fract_x
 _atom_site_fract_y
 _atom_site_fract_z
 _atom_site_occupancy
  Si  Si0  16  0.11260000  0.03690000  0.16640000  1
  Si  Si1  16  0.11280000  0.22890000  0.06060000  1
  Si  Si2  16  0.22670000  0.09580000  0.55210000  1
  O  O3  16  0.12520000  0.15150000  0.12930000  1
  O  O4  16  0.14650000  0.16780000  0.51160000  1
  O  O5  16  0.17940000  0.33280000  0.07190000  1
  O  O6  16  0.18040000  0.04830000  0.62530000  1
  O  O7  8  0.00000000  0.00040000  0.16140000  1
  O  O8  8  0.00000000  0.26360000  0.05320000  1
  O  O9  8  0.14490000  0.04380000  0.25000000  1
  O  O10  8  0.24040000  0.50000000  0.00000000  1
