# generated using pymatgen
data_SiO2
_symmetry_space_group_name_H-M   'P 1'
_cell_length_a   13.67399984
_cell_length_b   13.67399984
_cell_length_c   19.69500000
_cell_angle_alpha   90.00000000
_cell_angle_beta   90.00000000
_cell_angle_gamma   120.00000000
_symmetry_Int_Tables_number   1
_chemical_formula_structural   SiO2
_chemical_formula_sum   'Si48 O96'
_cell_volume   3189.17064403
_cell_formula_units_Z   48
loop_
 _symmetry_equiv_pos_site_id
 _symmetry_equiv_pos_as_xyz
  1  'x, y, z'
loop_
 _atom_site_type_symbol
 _atom_site_label
 _atom_site_symmetry_multiplicity
 _atom_site_fract_x
 _atom_site_fract_y
 _atom_site_fract_z
 _atom_site_occupancy
  Si  Si0  1  0.00030000  0.22680000  0.07880000  1.0
  Si  Si1  1  0.99970000  0.77320000  0.92120000  1.0
  Si  Si2  1  0.77350000  0.00030000  0.57880000  1.0
  Si  Si3  1  0.22650000  0.99970000  0.42120000  1.0
  Si  Si4  1  0.77320000  0.77350000  0.07880000  1.0
  Si  Si5  1  0.22680000  0.22650000  0.92120000  1.0
  Si  Si6  1  0.99970000  0.77320000  0.57880000  1.0
  Si  Si7  1  0.00030000  0.22680000  0.42120000  1.0
  Si  Si8  1  0.22650000  0.99970000  0.07880000  1.0
  Si  Si9  1  0.77350000  0.00030000  0.92120000  1.0
  Si  Si10  1  0.22680000  0.22650000  0.57880000  1.0
  Si  Si11  1  0.77320000  0.77350000  0.42120000  1.0
  Si  Si12  1  0.77320000  0.99970000  0.42120000  1.0
  Si  Si13  1  0.22680000  0.00030000  0.57880000  1.0
  Si  Si14  1  0.99970000  0.22650000  0.92120000  1.0
  Si  Si15  1  0.00030000  0.77350000  0.07880000  1.0
  Si  Si16  1  0.22650000  0.22680000  0.42120000  1.0
  Si  Si17  1  0.77350000  0.77320000  0.57880000  1.0
  Si  Si18  1  0.22680000  0.00030000  0.92120000  1.0
  Si  Si19  1  0.77320000  0.99970000  0.07880000  1.0
  Si  Si20  1  0.00030000  0.77350000  0.42120000  1.0
  Si  Si21  1  0.99970000  0.22650000  0.57880000  1.0
  Si  Si22  1  0.77350000  0.77320000  0.92120000  1.0
  Si  Si23  1  0.22650000  0.22680000  0.07880000  1.0
  Si  Si24  1  0.10690000  0.43980000  0.17120000  1.0
  Si  Si25  1  0.89310000  0.56020000  0.82880000  1.0
  Si  Si26  1  0.66710000  0.10690000  0.67120000  1.0
  Si  Si27  1  0.33290000  0.89310000  0.32880000  1.0
  Si  Si28  1  0.56020000  0.66710000  0.17120000  1.0
  Si  Si29  1  0.43980000  0.33290000  0.82880000  1.0
  Si  Si30  1  0.89310000  0.56020000  0.67120000  1.0
  Si  Si31  1  0.10690000  0.43980000  0.32880000  1.0
  Si  Si32  1  0.33290000  0.89310000  0.17120000  1.0
  Si  Si33  1  0.66710000  0.10690000  0.82880000  1.0
  Si  Si34  1  0.43980000  0.33290000  0.67120000  1.0
  Si  Si35  1  0.56020000  0.66710000  0.32880000  1.0
  Si  Si36  1  0.56020000  0.89310000  0.32880000  1.0
  Si  Si37  1  0.43980000  0.10690000  0.67120000  1.0
  Si  Si38  1  0.89310000  0.33290000  0.82880000  1.0
  Si  Si39  1  0.10690000  0.66710000  0.17120000  1.0
  Si  Si40  1  0.33290000  0.43980000  0.32880000  1.0
  Si  Si41  1  0.66710000  0.56020000  0.67120000  1.0
  Si  Si42  1  0.43980000  0.10690000  0.82880000  1.0
  Si  Si43  1  0.56020000  0.89310000  0.17120000  1.0
  Si  Si44  1  0.10690000  0.66710000  0.32880000  1.0
  Si  Si45  1  0.89310000  0.33290000  0.67120000  1.0
  Si  Si46  1  0.66710000  0.56020000  0.82880000  1.0
  Si  Si47  1  0.33290000  0.43980000  0.17120000  1.0
  O  O48  1  0.02320000  0.33340000  0.12500000  1.0
  O  O49  1  0.97680000  0.66660000  0.87500000  1.0
  O  O50  1  0.68980000  0.02320000  0.62500000  1.0
  O  O51  1  0.31020000  0.97680000  0.37500000  1.0
  O  O52  1  0.66660000  0.68980000  0.12500000  1.0
  O  O53  1  0.33340000  0.31020000  0.87500000  1.0
  O  O54  1  0.97680000  0.66660000  0.62500000  1.0
  O  O55  1  0.02320000  0.33340000  0.37500000  1.0
  O  O56  1  0.31020000  0.97680000  0.12500000  1.0
  O  O57  1  0.68980000  0.02320000  0.87500000  1.0
  O  O58  1  0.33340000  0.31020000  0.62500000  1.0
  O  O59  1  0.66660000  0.68980000  0.37500000  1.0
  O  O60  1  0.66660000  0.97680000  0.37500000  1.0
  O  O61  1  0.33340000  0.02320000  0.62500000  1.0
  O  O62  1  0.97680000  0.31020000  0.87500000  1.0
  O  O63  1  0.02320000  0.68980000  0.12500000  1.0
  O  O64  1  0.31020000  0.33340000  0.37500000  1.0
  O  O65  1  0.68980000  0.66660000  0.62500000  1.0
  O  O66  1  0.33340000  0.02320000  0.87500000  1.0
  O  O67  1  0.66660000  0.97680000  0.12500000  1.0
  O  O68  1  0.02320000  0.68980000  0.37500000  1.0
  O  O69  1  0.97680000  0.31020000  0.62500000  1.0
  O  O70  1  0.68980000  0.66660000  0.87500000  1.0
  O  O71  1  0.31020000  0.33340000  0.12500000  1.0
  O  O72  1  0.00000000  0.25770000  0.00000000  1.0
  O  O73  1  0.00000000  0.74230000  0.00000000  1.0
  O  O74  1  0.74230000  0.00000000  0.50000000  1.0
  O  O75  1  0.25770000  0.00000000  0.50000000  1.0
  O  O76  1  0.74230000  0.74230000  0.00000000  1.0
  O  O77  1  0.25770000  0.25770000  0.00000000  1.0
  O  O78  1  0.00000000  0.74230000  0.50000000  1.0
  O  O79  1  0.00000000  0.25770000  0.50000000  1.0
  O  O80  1  0.25770000  0.00000000  0.00000000  1.0
  O  O81  1  0.74230000  0.00000000  0.00000000  1.0
  O  O82  1  0.25770000  0.25770000  0.50000000  1.0
  O  O83  1  0.74230000  0.74230000  0.50000000  1.0
  O  O84  1  0.07600000  0.40850000  0.25000000  1.0
  O  O85  1  0.92400000  0.59150000  0.75000000  1.0
  O  O86  1  0.66750000  0.07600000  0.75000000  1.0
  O  O87  1  0.33250000  0.92400000  0.25000000  1.0
  O  O88  1  0.59150000  0.66750000  0.25000000  1.0
  O  O89  1  0.40850000  0.33250000  0.75000000  1.0
  O  O90  1  0.59150000  0.92400000  0.25000000  1.0
  O  O91  1  0.40850000  0.07600000  0.75000000  1.0
  O  O92  1  0.92400000  0.33250000  0.75000000  1.0
  O  O93  1  0.07600000  0.66750000  0.25000000  1.0
  O  O94  1  0.33250000  0.40850000  0.25000000  1.0
  O  O95  1  0.66750000  0.59150000  0.75000000  1.0
  O  O96  1  0.09260000  0.54630000  0.15180000  1.0
  O  O97  1  0.90740000  0.45370000  0.84820000  1.0
  O  O98  1  0.54630000  0.09260000  0.65180000  1.0
  O  O99  1  0.45370000  0.90740000  0.34820000  1.0
  O  O100  1  0.45370000  0.54630000  0.15180000  1.0
  O  O101  1  0.54630000  0.45370000  0.84820000  1.0
  O  O102  1  0.90740000  0.45370000  0.65180000  1.0
  O  O103  1  0.09260000  0.54630000  0.34820000  1.0
  O  O104  1  0.45370000  0.90740000  0.15180000  1.0
  O  O105  1  0.54630000  0.09260000  0.84820000  1.0
  O  O106  1  0.54630000  0.45370000  0.65180000  1.0
  O  O107  1  0.45370000  0.54630000  0.34820000  1.0
  O  O108  1  0.09800000  0.19600000  0.09200000  1.0
  O  O109  1  0.90200000  0.80400000  0.90800000  1.0
  O  O110  1  0.90200000  0.09800000  0.59200000  1.0
  O  O111  1  0.09800000  0.90200000  0.40800000  1.0
  O  O112  1  0.80400000  0.90200000  0.09200000  1.0
  O  O113  1  0.19600000  0.09800000  0.90800000  1.0
  O  O114  1  0.90200000  0.80400000  0.59200000  1.0
  O  O115  1  0.09800000  0.19600000  0.40800000  1.0
  O  O116  1  0.09800000  0.90200000  0.09200000  1.0
  O  O117  1  0.90200000  0.09800000  0.90800000  1.0
  O  O118  1  0.19600000  0.09800000  0.59200000  1.0
  O  O119  1  0.80400000  0.90200000  0.40800000  1.0
  O  O120  1  0.12030000  0.24060000  0.59860000  1.0
  O  O121  1  0.87970000  0.75940000  0.40140000  1.0
  O  O122  1  0.87970000  0.12030000  0.09860000  1.0
  O  O123  1  0.12030000  0.87970000  0.90140000  1.0
  O  O124  1  0.75940000  0.87970000  0.59860000  1.0
  O  O125  1  0.24060000  0.12030000  0.40140000  1.0
  O  O126  1  0.87970000  0.75940000  0.09860000  1.0
  O  O127  1  0.12030000  0.24060000  0.90140000  1.0
  O  O128  1  0.12030000  0.87970000  0.59860000  1.0
  O  O129  1  0.87970000  0.12030000  0.40140000  1.0
  O  O130  1  0.24060000  0.12030000  0.09860000  1.0
  O  O131  1  0.75940000  0.87970000  0.90140000  1.0
  O  O132  1  0.23545000  0.47090000  0.15770000  1.0
  O  O133  1  0.76455000  0.52910000  0.84230000  1.0
  O  O134  1  0.76455000  0.23545000  0.65770000  1.0
  O  O135  1  0.23545000  0.76455000  0.34230000  1.0
  O  O136  1  0.52910000  0.76455000  0.15770000  1.0
  O  O137  1  0.47090000  0.23545000  0.84230000  1.0
  O  O138  1  0.76455000  0.52910000  0.65770000  1.0
  O  O139  1  0.23545000  0.47090000  0.34230000  1.0
  O  O140  1  0.23545000  0.76455000  0.15770000  1.0
  O  O141  1  0.76455000  0.23545000  0.84230000  1.0
  O  O142  1  0.47090000  0.23545000  0.65770000  1.0
  O  O143  1  0.52910000  0.76455000  0.34230000  1.0
