# generated using pymatgen
data_SiO2
_symmetry_space_group_name_H-M   P6_3/mmc
_cell_length_a   13.67399984
_cell_length_b   13.67399984
_cell_length_c   19.69500000
_cell_angle_alpha   90.00000000
_cell_angle_beta   90.00000000
_cell_angle_gamma   120.00000000
_symmetry_Int_Tables_number   194
_chemical_formula_structural   SiO2
_chemical_formula_sum   'Si48 O96'
_cell_volume   3189.17064365
_cell_formula_units_Z   48
loop_
 _symmetry_equiv_pos_site_id
 _symmetry_equiv_pos_as_xyz
  1  'x, y, z'
  2  '-x, -y, -z'
  3  'x-y, x, z+1/2'
  4  '-x+y, -x, -z+1/2'
  5  '-y, x-y, z'
  6  'y, -x+y, -z'
  7  '-x, -y, z+1/2'
  8  'x, y, -z+1/2'
  9  '-x+y, -x, z'
  10  'x-y, x, -z'
  11  'y, -x+y, z+1/2'
  12  '-y, x-y, -z+1/2'
  13  '-y, -x, -z+1/2'
  14  'y, x, z+1/2'
  15  '-x, -x+y, -z'
  16  'x, x-y, z'
  17  '-x+y, y, -z+1/2'
  18  'x-y, -y, z+1/2'
  19  'y, x, -z'
  20  '-y, -x, z'
  21  'x, x-y, -z+1/2'
  22  '-x, -x+y, z+1/2'
  23  'x-y, -y, -z'
  24  '-x+y, y, z'
loop_
 _atom_site_type_symbol
 _atom_site_label
 _atom_site_symmetry_multiplicity
 _atom_site_fract_x
 _atom_site_fract_y
 _atom_site_fract_z
 _atom_site_occupancy
  Si  Si0  24  0.00030000  0.22680000  0.07880000  1
  Si  Si1  24  0.10690000  0.43980000  0.17120000  1
  O  O2  24  0.02320000  0.33340000  0.12500000  1
  O  O3  12  0.00000000  0.25770000  0.00000000  1
  O  O4  12  0.07600000  0.40850000  0.25000000  1
  O  O5  12  0.09260000  0.54630000  0.15180000  1
  O  O6  12  0.09800000  0.19600000  0.09200000  1
  O  O7  12  0.12030000  0.24060000  0.59860000  1
  O  O8  12  0.23545000  0.47090000  0.15770000  1
