# generated using pymatgen
data_SiO2
_symmetry_space_group_name_H-M   'P 1'
_cell_length_a   12.32999990
_cell_length_b   12.32999990
_cell_length_c   8.60300000
_cell_angle_alpha   90.00000000
_cell_angle_beta   90.00000000
_cell_angle_gamma   120.00000000
_symmetry_Int_Tables_number   1
_chemical_formula_structural   SiO2
_chemical_formula_sum   'Si16 O32'
_cell_volume   1132.67861408
_cell_formula_units_Z   16
loop_
 _symmetry_equiv_pos_site_id
 _symmetry_equiv_pos_as_xyz
  1  'x, y, z'
loop_
 _atom_site_type_symbol
 _atom_site_label
 _atom_site_symmetry_multiplicity
 _atom_site_fract_x
 _atom_site_fract_y
 _atom_site_fract_z
 _atom_site_occupancy
  Si  Si0  1  0.13590000  0.46100000  0.39520000  1.0
  Si  Si1  1  0.86410000  0.53900000  0.60480000  1.0
  Si  Si2  1  0.53900000  0.67490000  0.39520000  1.0
  Si  Si3  1  0.46100000  0.32510000  0.60480000  1.0
  Si  Si4  1  0.32510000  0.86410000  0.39520000  1.0
  Si  Si5  1  0.67490000  0.13590000  0.60480000  1.0
  Si  Si6  1  0.53900000  0.86410000  0.60480000  1.0
  Si  Si7  1  0.46100000  0.13590000  0.39520000  1.0
  Si  Si8  1  0.32510000  0.46100000  0.60480000  1.0
  Si  Si9  1  0.67490000  0.53900000  0.39520000  1.0
  Si  Si10  1  0.13590000  0.67490000  0.60480000  1.0
  Si  Si11  1  0.86410000  0.32510000  0.39520000  1.0
  Si  Si12  1  0.33333333  0.66666667  0.18680000  1.0
  Si  Si13  1  0.66666667  0.33333333  0.81320000  1.0
  Si  Si14  1  0.33333333  0.66666667  0.81320000  1.0
  Si  Si15  1  0.66666667  0.33333333  0.18680000  1.0
  O  O16  1  0.22430000  0.53300000  0.24910000  1.0
  O  O17  1  0.77570000  0.46700000  0.75090000  1.0
  O  O18  1  0.46700000  0.69130000  0.24910000  1.0
  O  O19  1  0.53300000  0.30870000  0.75090000  1.0
  O  O20  1  0.30870000  0.77570000  0.24910000  1.0
  O  O21  1  0.69130000  0.22430000  0.75090000  1.0
  O  O22  1  0.46700000  0.77570000  0.75090000  1.0
  O  O23  1  0.53300000  0.22430000  0.24910000  1.0
  O  O24  1  0.30870000  0.53300000  0.75090000  1.0
  O  O25  1  0.69130000  0.46700000  0.24910000  1.0
  O  O26  1  0.22430000  0.69130000  0.75090000  1.0
  O  O27  1  0.77570000  0.30870000  0.24910000  1.0
  O  O28  1  0.00000000  0.35320000  0.33680000  1.0
  O  O29  1  0.00000000  0.64680000  0.66320000  1.0
  O  O30  1  0.64680000  0.64680000  0.33680000  1.0
  O  O31  1  0.35320000  0.35320000  0.66320000  1.0
  O  O32  1  0.35320000  0.00000000  0.33680000  1.0
  O  O33  1  0.64680000  0.00000000  0.66320000  1.0
  O  O34  1  0.11800000  0.55900000  0.50000000  1.0
  O  O35  1  0.88200000  0.44100000  0.50000000  1.0
  O  O36  1  0.44100000  0.55900000  0.50000000  1.0
  O  O37  1  0.55900000  0.44100000  0.50000000  1.0
  O  O38  1  0.44100000  0.88200000  0.50000000  1.0
  O  O39  1  0.55900000  0.11800000  0.50000000  1.0
  O  O40  1  0.20000000  0.80000000  0.50000000  1.0
  O  O41  1  0.80000000  0.20000000  0.50000000  1.0
  O  O42  1  0.20000000  0.40000000  0.50000000  1.0
  O  O43  1  0.80000000  0.60000000  0.50000000  1.0
  O  O44  1  0.60000000  0.80000000  0.50000000  1.0
  O  O45  1  0.40000000  0.20000000  0.50000000  1.0
  O  O46  1  0.33333333  0.66666667  0.00000000  1.0
  O  O47  1  0.66666667  0.33333333  0.00000000  1.0
