# generated using pymatgen
data_SiO2
_symmetry_space_group_name_H-M   P4_122
_cell_length_a   12.63200000
_cell_length_b   12.63200000
_cell_length_c   26.18600000
_cell_angle_alpha   90.00000000
_cell_angle_beta   90.00000000
_cell_angle_gamma   90.00000000
_symmetry_Int_Tables_number   91
_chemical_formula_structural   SiO2
_chemical_formula_sum   'Si64 O128'
_cell_volume   4178.43256486
_cell_formula_units_Z   64
loop_
 _symmetry_equiv_pos_site_id
 _symmetry_equiv_pos_as_xyz
  1  'x, y, z'
  2  '-y, x, z+1/4'
  3  '-x, -y, z+1/2'
  4  'y, -x, z+3/4'
  5  'x, -y, -z+1/2'
  6  '-y, -x, -z+1/4'
  7  '-x, y, -z'
  8  'y, x, -z+3/4'
loop_
 _atom_site_type_symbol
 _atom_site_label
 _atom_site_symmetry_multiplicity
 _atom_site_fract_x
 _atom_site_fract_y
 _atom_site_fract_z
 _atom_site_occupancy
  Si  Si0  8  0.04640000  0.45710000  0.55530000  1
  Si  Si1  8  0.04710000  0.20400000  0.55520000  1
  Si  Si2  8  0.14060000  0.47280000  0.12440000  1
  Si  Si3  8  0.20790000  0.28540000  0.19160000  1
  Si  Si4  8  0.21160000  0.33180000  0.30910000  1
  Si  Si5  8  0.28450000  0.45490000  0.55900000  1
  Si  Si6  8  0.33290000  0.45910000  0.44160000  1
  Si  Si7  4  0.13910000  0.13910000  0.37500000  1
  Si  Si8  4  0.47280000  0.47280000  0.87500000  1
  O  O9  8  0.02400000  0.15010000  0.40090000  1
  O  O10  8  0.02600000  0.48940000  0.09880000  1
  O  O11  8  0.04600000  0.33050000  0.56210000  1
  O  O12  8  0.14510000  0.35820000  0.15130000  1
  O  O13  8  0.15310000  0.22900000  0.33200000  1
  O  O14  8  0.15960000  0.43690000  0.33320000  1
  O  O15  8  0.16110000  0.16690000  0.19060000  1
  O  O16  8  0.16570000  0.49900000  0.93970000  1
  O  O17  8  0.19660000  0.33420000  0.24810000  1
  O  O18  8  0.23090000  0.48090000  0.08120000  1
  O  O19  8  0.28190000  0.33120000  0.57380000  1
  O  O20  8  0.32800000  0.33560000  0.42670000  1
  O  O21  8  0.33380000  0.47020000  0.50290000  1
  O  O22  8  0.35660000  0.48380000  0.89990000  1
  O  O23  8  0.43880000  0.48850000  0.08140000  1
  O  O24  4  0.00000000  0.17340000  0.50000000  1
  O  O25  4  0.00000000  0.48770000  0.50000000  1
