# generated using pymatgen
data_SiO2
_symmetry_space_group_name_H-M   'P 1'
_cell_length_a   17.65600000
_cell_length_b   17.65600000
_cell_length_c   14.33600012
_cell_angle_alpha   90.00000000
_cell_angle_beta   113.83999866
_cell_angle_gamma   90.00000000
_symmetry_Int_Tables_number   1
_chemical_formula_structural   SiO2
_chemical_formula_sum   'Si64 O128'
_cell_volume   4087.71623601
_cell_formula_units_Z   64
loop_
 _symmetry_equiv_pos_site_id
 _symmetry_equiv_pos_as_xyz
  1  'x, y, z'
loop_
 _atom_site_type_symbol
 _atom_site_label
 _atom_site_symmetry_multiplicity
 _atom_site_fract_x
 _atom_site_fract_y
 _atom_site_fract_z
 _atom_site_occupancy
  Si  Si0  1  0.10960000  0.51910000  0.88270000  1.0
  Si  Si1  1  0.89040000  0.51910000  0.61730000  1.0
  Si  Si2  1  0.89040000  0.48090000  0.11730000  1.0
  Si  Si3  1  0.10960000  0.48090000  0.38270000  1.0
  Si  Si4  1  0.98190000  0.64480000  0.88590000  1.0
  Si  Si5  1  0.01810000  0.64480000  0.61410000  1.0
  Si  Si6  1  0.01810000  0.35520000  0.11410000  1.0
  Si  Si7  1  0.98190000  0.35520000  0.38590000  1.0
  Si  Si8  1  0.79460000  0.20870000  0.88610000  1.0
  Si  Si9  1  0.20540000  0.20870000  0.61390000  1.0
  Si  Si10  1  0.20540000  0.79130000  0.11390000  1.0
  Si  Si11  1  0.79460000  0.79130000  0.38610000  1.0
  Si  Si12  1  0.66920000  0.33650000  0.89460000  1.0
  Si  Si13  1  0.33080000  0.33650000  0.60540000  1.0
  Si  Si14  1  0.33080000  0.66350000  0.10540000  1.0
  Si  Si15  1  0.66920000  0.66350000  0.39460000  1.0
  Si  Si16  1  0.91560000  0.33370000  0.88240000  1.0
  Si  Si17  1  0.08440000  0.33370000  0.61760000  1.0
  Si  Si18  1  0.08440000  0.66630000  0.11760000  1.0
  Si  Si19  1  0.91560000  0.66630000  0.38240000  1.0
  Si  Si20  1  0.79030000  0.45810000  0.88620000  1.0
  Si  Si21  1  0.20970000  0.45810000  0.61380000  1.0
  Si  Si22  1  0.20970000  0.54190000  0.11380000  1.0
  Si  Si23  1  0.79030000  0.54190000  0.38620000  1.0
  Si  Si24  1  0.00000000  0.39070000  0.75000000  1.0
  Si  Si25  1  0.00000000  0.60930000  0.25000000  1.0
  Si  Si26  1  0.19330000  0.58200000  0.74510000  1.0
  Si  Si27  1  0.80670000  0.58200000  0.75490000  1.0
  Si  Si28  1  0.80670000  0.41800000  0.25490000  1.0
  Si  Si29  1  0.19330000  0.41800000  0.24510000  1.0
  Si  Si30  1  0.00000000  0.77510000  0.75000000  1.0
  Si  Si31  1  0.00000000  0.22490000  0.25000000  1.0
  Si  Si32  1  0.60960000  0.01910000  0.88270000  1.0
  Si  Si33  1  0.39040000  0.01910000  0.61730000  1.0
  Si  Si34  1  0.39040000  0.98090000  0.11730000  1.0
  Si  Si35  1  0.60960000  0.98090000  0.38270000  1.0
  Si  Si36  1  0.48190000  0.14480000  0.88590000  1.0
  Si  Si37  1  0.51810000  0.14480000  0.61410000  1.0
  Si  Si38  1  0.51810000  0.85520000  0.11410000  1.0
  Si  Si39  1  0.48190000  0.85520000  0.38590000  1.0
  Si  Si40  1  0.29460000  0.70870000  0.88610000  1.0
  Si  Si41  1  0.70540000  0.70870000  0.61390000  1.0
  Si  Si42  1  0.70540000  0.29130000  0.11390000  1.0
  Si  Si43  1  0.29460000  0.29130000  0.38610000  1.0
  Si  Si44  1  0.16920000  0.83650000  0.89460000  1.0
  Si  Si45  1  0.83080000  0.83650000  0.60540000  1.0
  Si  Si46  1  0.83080000  0.16350000  0.10540000  1.0
  Si  Si47  1  0.16920000  0.16350000  0.39460000  1.0
  Si  Si48  1  0.41560000  0.83370000  0.88240000  1.0
  Si  Si49  1  0.58440000  0.83370000  0.61760000  1.0
  Si  Si50  1  0.58440000  0.16630000  0.11760000  1.0
  Si  Si51  1  0.41560000  0.16630000  0.38240000  1.0
  Si  Si52  1  0.29030000  0.95810000  0.88620000  1.0
  Si  Si53  1  0.70970000  0.95810000  0.61380000  1.0
  Si  Si54  1  0.70970000  0.04190000  0.11380000  1.0
  Si  Si55  1  0.29030000  0.04190000  0.38620000  1.0
  Si  Si56  1  0.50000000  0.89070000  0.75000000  1.0
  Si  Si57  1  0.50000000  0.10930000  0.25000000  1.0
  Si  Si58  1  0.69330000  0.08200000  0.74510000  1.0
  Si  Si59  1  0.30670000  0.08200000  0.75490000  1.0
  Si  Si60  1  0.30670000  0.91800000  0.25490000  1.0
  Si  Si61  1  0.69330000  0.91800000  0.24510000  1.0
  Si  Si62  1  0.50000000  0.27510000  0.75000000  1.0
  Si  Si63  1  0.50000000  0.72490000  0.25000000  1.0
  O  O64  1  0.04660000  0.58740000  0.87000000  1.0
  O  O65  1  0.95340000  0.58740000  0.63000000  1.0
  O  O66  1  0.95340000  0.41260000  0.13000000  1.0
  O  O67  1  0.04660000  0.41260000  0.37000000  1.0
  O  O68  1  0.16320000  0.50180000  0.00210000  1.0
  O  O69  1  0.83680000  0.50180000  0.49790000  1.0
  O  O70  1  0.83680000  0.49820000  0.99790000  1.0
  O  O71  1  0.16320000  0.49820000  0.50210000  1.0
  O  O72  1  0.06580000  0.43910000  0.84270000  1.0
  O  O73  1  0.93420000  0.43910000  0.65730000  1.0
  O  O74  1  0.93420000  0.56090000  0.15730000  1.0
  O  O75  1  0.06580000  0.56090000  0.34270000  1.0
  O  O76  1  0.17290000  0.54060000  0.83080000  1.0
  O  O77  1  0.82710000  0.54060000  0.66920000  1.0
  O  O78  1  0.82710000  0.45940000  0.16920000  1.0
  O  O79  1  0.17290000  0.45940000  0.33080000  1.0
  O  O80  1  0.00970000  0.65750000  0.00650000  1.0
  O  O81  1  0.99030000  0.65750000  0.49350000  1.0
  O  O82  1  0.99030000  0.34250000  0.99350000  1.0
  O  O83  1  0.00970000  0.34250000  0.50650000  1.0
  O  O84  1  0.88570000  0.61350000  0.85290000  1.0
  O  O85  1  0.11430000  0.61350000  0.64710000  1.0
  O  O86  1  0.11430000  0.38650000  0.14710000  1.0
  O  O87  1  0.88570000  0.38650000  0.35290000  1.0
  O  O88  1  0.98720000  0.72600000  0.83470000  1.0
  O  O89  1  0.01280000  0.72600000  0.66530000  1.0
  O  O90  1  0.01280000  0.27400000  0.16530000  1.0
  O  O91  1  0.98720000  0.27400000  0.33470000  1.0
  O  O92  1  0.22220000  0.76710000  0.87850000  1.0
  O  O93  1  0.77780000  0.76710000  0.62150000  1.0
  O  O94  1  0.77780000  0.23290000  0.12150000  1.0
  O  O95  1  0.22220000  0.23290000  0.37850000  1.0
  O  O96  1  0.87110000  0.25140000  0.87710000  1.0
  O  O97  1  0.12890000  0.25140000  0.62290000  1.0
  O  O98  1  0.12890000  0.74860000  0.12290000  1.0
  O  O99  1  0.87110000  0.74860000  0.37710000  1.0
  O  O100  1  0.25750000  0.65020000  0.79440000  1.0
  O  O101  1  0.74250000  0.65020000  0.70560000  1.0
  O  O102  1  0.74250000  0.34980000  0.20560000  1.0
  O  O103  1  0.25750000  0.34980000  0.29440000  1.0
  O  O104  1  0.33140000  0.66400000  0.99410000  1.0
  O  O105  1  0.66860000  0.66400000  0.50590000  1.0
  O  O106  1  0.66860000  0.33600000  0.00590000  1.0
  O  O107  1  0.33140000  0.33600000  0.49410000  1.0
  O  O108  1  0.70130000  0.41030000  0.87440000  1.0
  O  O109  1  0.29870000  0.41030000  0.62560000  1.0
  O  O110  1  0.29870000  0.58970000  0.12560000  1.0
  O  O111  1  0.70130000  0.58970000  0.37440000  1.0
  O  O112  1  0.08060000  0.82700000  0.81550000  1.0
  O  O113  1  0.91940000  0.82700000  0.68450000  1.0
  O  O114  1  0.91940000  0.17300000  0.18450000  1.0
  O  O115  1  0.08060000  0.17300000  0.31550000  1.0
  O  O116  1  0.84880000  0.39940000  0.85990000  1.0
  O  O117  1  0.15120000  0.39940000  0.64010000  1.0
  O  O118  1  0.15120000  0.60060000  0.14010000  1.0
  O  O119  1  0.84880000  0.60060000  0.35990000  1.0
  O  O120  1  0.95540000  0.33420000  0.79950000  1.0
  O  O121  1  0.04460000  0.33420000  0.70050000  1.0
  O  O122  1  0.04460000  0.66580000  0.20050000  1.0
  O  O123  1  0.95540000  0.66580000  0.29950000  1.0
  O  O124  1  0.76330000  0.52380000  0.80250000  1.0
  O  O125  1  0.23670000  0.52380000  0.69750000  1.0
  O  O126  1  0.23670000  0.47620000  0.19750000  1.0
  O  O127  1  0.76330000  0.47620000  0.30250000  1.0
  O  O128  1  0.54660000  0.08740000  0.87000000  1.0
  O  O129  1  0.45340000  0.08740000  0.63000000  1.0
  O  O130  1  0.45340000  0.91260000  0.13000000  1.0
  O  O131  1  0.54660000  0.91260000  0.37000000  1.0
  O  O132  1  0.66320000  0.00180000  0.00210000  1.0
  O  O133  1  0.33680000  0.00180000  0.49790000  1.0
  O  O134  1  0.33680000  0.99820000  0.99790000  1.0
  O  O135  1  0.66320000  0.99820000  0.50210000  1.0
  O  O136  1  0.56580000  0.93910000  0.84270000  1.0
  O  O137  1  0.43420000  0.93910000  0.65730000  1.0
  O  O138  1  0.43420000  0.06090000  0.15730000  1.0
  O  O139  1  0.56580000  0.06090000  0.34270000  1.0
  O  O140  1  0.67290000  0.04060000  0.83080000  1.0
  O  O141  1  0.32710000  0.04060000  0.66920000  1.0
  O  O142  1  0.32710000  0.95940000  0.16920000  1.0
  O  O143  1  0.67290000  0.95940000  0.33080000  1.0
  O  O144  1  0.50970000  0.15750000  0.00650000  1.0
  O  O145  1  0.49030000  0.15750000  0.49350000  1.0
  O  O146  1  0.49030000  0.84250000  0.99350000  1.0
  O  O147  1  0.50970000  0.84250000  0.50650000  1.0
  O  O148  1  0.38570000  0.11350000  0.85290000  1.0
  O  O149  1  0.61430000  0.11350000  0.64710000  1.0
  O  O150  1  0.61430000  0.88650000  0.14710000  1.0
  O  O151  1  0.38570000  0.88650000  0.35290000  1.0
  O  O152  1  0.48720000  0.22600000  0.83470000  1.0
  O  O153  1  0.51280000  0.22600000  0.66530000  1.0
  O  O154  1  0.51280000  0.77400000  0.16530000  1.0
  O  O155  1  0.48720000  0.77400000  0.33470000  1.0
  O  O156  1  0.72220000  0.26710000  0.87850000  1.0
  O  O157  1  0.27780000  0.26710000  0.62150000  1.0
  O  O158  1  0.27780000  0.73290000  0.12150000  1.0
  O  O159  1  0.72220000  0.73290000  0.37850000  1.0
  O  O160  1  0.37110000  0.75140000  0.87710000  1.0
  O  O161  1  0.62890000  0.75140000  0.62290000  1.0
  O  O162  1  0.62890000  0.24860000  0.12290000  1.0
  O  O163  1  0.37110000  0.24860000  0.37710000  1.0
  O  O164  1  0.75750000  0.15020000  0.79440000  1.0
  O  O165  1  0.24250000  0.15020000  0.70560000  1.0
  O  O166  1  0.24250000  0.84980000  0.20560000  1.0
  O  O167  1  0.75750000  0.84980000  0.29440000  1.0
  O  O168  1  0.83140000  0.16400000  0.99410000  1.0
  O  O169  1  0.16860000  0.16400000  0.50590000  1.0
  O  O170  1  0.16860000  0.83600000  0.00590000  1.0
  O  O171  1  0.83140000  0.83600000  0.49410000  1.0
  O  O172  1  0.20130000  0.91030000  0.87440000  1.0
  O  O173  1  0.79870000  0.91030000  0.62560000  1.0
  O  O174  1  0.79870000  0.08970000  0.12560000  1.0
  O  O175  1  0.20130000  0.08970000  0.37440000  1.0
  O  O176  1  0.58060000  0.32700000  0.81550000  1.0
  O  O177  1  0.41940000  0.32700000  0.68450000  1.0
  O  O178  1  0.41940000  0.67300000  0.18450000  1.0
  O  O179  1  0.58060000  0.67300000  0.31550000  1.0
  O  O180  1  0.34880000  0.89940000  0.85990000  1.0
  O  O181  1  0.65120000  0.89940000  0.64010000  1.0
  O  O182  1  0.65120000  0.10060000  0.14010000  1.0
  O  O183  1  0.34880000  0.10060000  0.35990000  1.0
  O  O184  1  0.45540000  0.83420000  0.79950000  1.0
  O  O185  1  0.54460000  0.83420000  0.70050000  1.0
  O  O186  1  0.54460000  0.16580000  0.20050000  1.0
  O  O187  1  0.45540000  0.16580000  0.29950000  1.0
  O  O188  1  0.26330000  0.02380000  0.80250000  1.0
  O  O189  1  0.73670000  0.02380000  0.69750000  1.0
  O  O190  1  0.73670000  0.97620000  0.19750000  1.0
  O  O191  1  0.26330000  0.97620000  0.30250000  1.0
