# generated using pymatgen
data_SiO2
_symmetry_space_group_name_H-M   P4_2/mmc
_cell_length_a   12.77000000
_cell_length_b   12.77000000
_cell_length_c   12.97700000
_cell_angle_alpha   90.00000000
_cell_angle_beta   90.00000000
_cell_angle_gamma   90.00000000
_symmetry_Int_Tables_number   131
_chemical_formula_structural   SiO2
_chemical_formula_sum   'Si32 O64'
_cell_volume   2116.19702330
_cell_formula_units_Z   32
loop_
 _symmetry_equiv_pos_site_id
 _symmetry_equiv_pos_as_xyz
  1  'x, y, z'
  2  '-x, -y, -z'
  3  '-y, x, z+1/2'
  4  'y, -x, -z+1/2'
  5  '-x, -y, z'
  6  'x, y, -z'
  7  'y, -x, z+1/2'
  8  '-y, x, -z+1/2'
  9  'x, -y, -z'
  10  '-x, y, z'
  11  '-y, -x, -z+1/2'
  12  'y, x, z+1/2'
  13  '-x, y, -z'
  14  'x, -y, z'
  15  'y, x, -z+1/2'
  16  '-y, -x, z+1/2'
loop_
 _atom_site_type_symbol
 _atom_site_label
 _atom_site_symmetry_multiplicity
 _atom_site_fract_x
 _atom_site_fract_y
 _atom_site_fract_z
 _atom_site_occupancy
  Si  Si0  16  0.12300000  0.38200000  0.38320000  1
  Si  Si1  8  0.00000000  0.11920000  0.12380000  1
  Si  Si2  8  0.19300000  0.19300000  0.25000000  1
  O  O3  16  0.10270000  0.17970000  0.16440000  1
  O  O4  16  0.18370000  0.30580000  0.30460000  1
  O  O5  8  0.00000000  0.38010000  0.35640000  1
  O  O6  8  0.14070000  0.34330000  0.50000000  1
  O  O7  8  0.16610000  0.50000000  0.37100000  1
  O  O8  4  0.00000000  0.00000000  0.16450000  1
  O  O9  4  0.00000000  0.11960000  0.00000000  1
