# generated using pymatgen
data_SiO2
_symmetry_space_group_name_H-M   'P 1'
_cell_length_a   12.77000000
_cell_length_b   12.77000000
_cell_length_c   12.97700000
_cell_angle_alpha   90.00000000
_cell_angle_beta   90.00000000
_cell_angle_gamma   90.00000000
_symmetry_Int_Tables_number   1
_chemical_formula_structural   SiO2
_chemical_formula_sum   'Si32 O64'
_cell_volume   2116.19702330
_cell_formula_units_Z   32
loop_
 _symmetry_equiv_pos_site_id
 _symmetry_equiv_pos_as_xyz
  1  'x, y, z'
loop_
 _atom_site_type_symbol
 _atom_site_label
 _atom_site_symmetry_multiplicity
 _atom_site_fract_x
 _atom_site_fract_y
 _atom_site_fract_z
 _atom_site_occupancy
  Si  Si0  1  0.12300000  0.38200000  0.38320000  1.0
  Si  Si1  1  0.87700000  0.61800000  0.61680000  1.0
  Si  Si2  1  0.61800000  0.12300000  0.88320000  1.0
  Si  Si3  1  0.38200000  0.87700000  0.11680000  1.0
  Si  Si4  1  0.87700000  0.61800000  0.38320000  1.0
  Si  Si5  1  0.12300000  0.38200000  0.61680000  1.0
  Si  Si6  1  0.38200000  0.87700000  0.88320000  1.0
  Si  Si7  1  0.61800000  0.12300000  0.11680000  1.0
  Si  Si8  1  0.12300000  0.61800000  0.61680000  1.0
  Si  Si9  1  0.87700000  0.38200000  0.38320000  1.0
  Si  Si10  1  0.61800000  0.87700000  0.11680000  1.0
  Si  Si11  1  0.38200000  0.12300000  0.88320000  1.0
  Si  Si12  1  0.87700000  0.38200000  0.61680000  1.0
  Si  Si13  1  0.12300000  0.61800000  0.38320000  1.0
  Si  Si14  1  0.38200000  0.12300000  0.11680000  1.0
  Si  Si15  1  0.61800000  0.87700000  0.88320000  1.0
  Si  Si16  1  0.00000000  0.11920000  0.12380000  1.0
  Si  Si17  1  0.00000000  0.88080000  0.87620000  1.0
  Si  Si18  1  0.88080000  0.00000000  0.62380000  1.0
  Si  Si19  1  0.11920000  0.00000000  0.37620000  1.0
  Si  Si20  1  0.00000000  0.88080000  0.12380000  1.0
  Si  Si21  1  0.00000000  0.11920000  0.87620000  1.0
  Si  Si22  1  0.11920000  0.00000000  0.62380000  1.0
  Si  Si23  1  0.88080000  0.00000000  0.37620000  1.0
  Si  Si24  1  0.19300000  0.19300000  0.25000000  1.0
  Si  Si25  1  0.80700000  0.80700000  0.75000000  1.0
  Si  Si26  1  0.80700000  0.19300000  0.75000000  1.0
  Si  Si27  1  0.19300000  0.80700000  0.25000000  1.0
  Si  Si28  1  0.80700000  0.80700000  0.25000000  1.0
  Si  Si29  1  0.19300000  0.19300000  0.75000000  1.0
  Si  Si30  1  0.19300000  0.80700000  0.75000000  1.0
  Si  Si31  1  0.80700000  0.19300000  0.25000000  1.0
  O  O32  1  0.10270000  0.17970000  0.16440000  1.0
  O  O33  1  0.89730000  0.82030000  0.83560000  1.0
  O  O34  1  0.82030000  0.10270000  0.66440000  1.0
  O  O35  1  0.17970000  0.89730000  0.33560000  1.0
  O  O36  1  0.89730000  0.82030000  0.16440000  1.0
  O  O37  1  0.10270000  0.17970000  0.83560000  1.0
  O  O38  1  0.17970000  0.89730000  0.66440000  1.0
  O  O39  1  0.82030000  0.10270000  0.33560000  1.0
  O  O40  1  0.10270000  0.82030000  0.83560000  1.0
  O  O41  1  0.89730000  0.17970000  0.16440000  1.0
  O  O42  1  0.82030000  0.89730000  0.33560000  1.0
  O  O43  1  0.17970000  0.10270000  0.66440000  1.0
  O  O44  1  0.89730000  0.17970000  0.83560000  1.0
  O  O45  1  0.10270000  0.82030000  0.16440000  1.0
  O  O46  1  0.17970000  0.10270000  0.33560000  1.0
  O  O47  1  0.82030000  0.89730000  0.66440000  1.0
  O  O48  1  0.18370000  0.30580000  0.30460000  1.0
  O  O49  1  0.81630000  0.69420000  0.69540000  1.0
  O  O50  1  0.69420000  0.18370000  0.80460000  1.0
  O  O51  1  0.30580000  0.81630000  0.19540000  1.0
  O  O52  1  0.81630000  0.69420000  0.30460000  1.0
  O  O53  1  0.18370000  0.30580000  0.69540000  1.0
  O  O54  1  0.30580000  0.81630000  0.80460000  1.0
  O  O55  1  0.69420000  0.18370000  0.19540000  1.0
  O  O56  1  0.18370000  0.69420000  0.69540000  1.0
  O  O57  1  0.81630000  0.30580000  0.30460000  1.0
  O  O58  1  0.69420000  0.81630000  0.19540000  1.0
  O  O59  1  0.30580000  0.18370000  0.80460000  1.0
  O  O60  1  0.81630000  0.30580000  0.69540000  1.0
  O  O61  1  0.18370000  0.69420000  0.30460000  1.0
  O  O62  1  0.30580000  0.18370000  0.19540000  1.0
  O  O63  1  0.69420000  0.81630000  0.80460000  1.0
  O  O64  1  0.00000000  0.38010000  0.35640000  1.0
  O  O65  1  0.00000000  0.61990000  0.64360000  1.0
  O  O66  1  0.61990000  0.00000000  0.85640000  1.0
  O  O67  1  0.38010000  0.00000000  0.14360000  1.0
  O  O68  1  0.00000000  0.61990000  0.35640000  1.0
  O  O69  1  0.00000000  0.38010000  0.64360000  1.0
  O  O70  1  0.38010000  0.00000000  0.85640000  1.0
  O  O71  1  0.61990000  0.00000000  0.14360000  1.0
  O  O72  1  0.14070000  0.34330000  0.50000000  1.0
  O  O73  1  0.85930000  0.65670000  0.50000000  1.0
  O  O74  1  0.65670000  0.14070000  0.00000000  1.0
  O  O75  1  0.34330000  0.85930000  0.00000000  1.0
  O  O76  1  0.14070000  0.65670000  0.50000000  1.0
  O  O77  1  0.85930000  0.34330000  0.50000000  1.0
  O  O78  1  0.65670000  0.85930000  0.00000000  1.0
  O  O79  1  0.34330000  0.14070000  0.00000000  1.0
  O  O80  1  0.16610000  0.50000000  0.37100000  1.0
  O  O81  1  0.83390000  0.50000000  0.62900000  1.0
  O  O82  1  0.50000000  0.16610000  0.87100000  1.0
  O  O83  1  0.50000000  0.83390000  0.12900000  1.0
  O  O84  1  0.83390000  0.50000000  0.37100000  1.0
  O  O85  1  0.16610000  0.50000000  0.62900000  1.0
  O  O86  1  0.50000000  0.83390000  0.87100000  1.0
  O  O87  1  0.50000000  0.16610000  0.12900000  1.0
  O  O88  1  0.00000000  0.00000000  0.16450000  1.0
  O  O89  1  0.00000000  0.00000000  0.83550000  1.0
  O  O90  1  0.00000000  0.00000000  0.66450000  1.0
  O  O91  1  0.00000000  0.00000000  0.33550000  1.0
  O  O92  1  0.00000000  0.11960000  0.00000000  1.0
  O  O93  1  0.00000000  0.88040000  0.00000000  1.0
  O  O94  1  0.88040000  0.00000000  0.50000000  1.0
  O  O95  1  0.11960000  0.00000000  0.50000000  1.0
