# generated using pymatgen
data_SiO2
_symmetry_space_group_name_H-M   Imma
_cell_length_a   20.01400000
_cell_length_b   23.58000000
_cell_length_c   12.66900000
_cell_angle_alpha   90.00000000
_cell_angle_beta   90.00000000
_cell_angle_gamma   90.00000000
_symmetry_Int_Tables_number   74
_chemical_formula_structural   SiO2
_chemical_formula_sum   'Si96 O192'
_cell_volume   5978.88269028
_cell_formula_units_Z   96
loop_
 _symmetry_equiv_pos_site_id
 _symmetry_equiv_pos_as_xyz
  1  'x, y, z'
  2  '-x, -y, -z'
  3  '-x+1/2, -y, z+1/2'
  4  'x+1/2, y, -z+1/2'
  5  'x, -y, -z'
  6  '-x, y, z'
  7  '-x+1/2, y, -z+1/2'
  8  'x+1/2, -y, z+1/2'
  9  'x+1/2, y+1/2, z+1/2'
  10  '-x+1/2, -y+1/2, -z+1/2'
  11  '-x, -y+1/2, z'
  12  'x, y+1/2, -z'
  13  'x+1/2, -y+1/2, -z+1/2'
  14  '-x+1/2, y+1/2, z+1/2'
  15  '-x, y+1/2, -z'
  16  'x, -y+1/2, z'
loop_
 _atom_site_type_symbol
 _atom_site_label
 _atom_site_symmetry_multiplicity
 _atom_site_fract_x
 _atom_site_fract_y
 _atom_site_fract_z
 _atom_site_occupancy
  Si  Si0  16  0.07660000  0.47170000  0.16340000  1
  Si  Si1  16  0.07670000  0.18490000  0.82290000  1
  Si  Si2  16  0.12220000  0.41940000  0.95210000  1
  Si  Si3  16  0.18960000  0.48080000  0.33080000  1
  Si  Si4  16  0.19350000  0.18470000  0.66570000  1
  Si  Si5  16  0.22100000  0.08090000  0.53300000  1
  O  O6  16  0.08250000  0.03570000  0.87990000  1
  O  O7  16  0.10110000  0.42800000  0.07370000  1
  O  O8  16  0.10380000  0.14410000  0.91520000  1
  O  O9  16  0.12090000  0.17620000  0.71790000  1
  O  O10  16  0.12290000  0.46460000  0.26650000  1
  O  O11  16  0.17620000  0.03710000  0.60000000  1
  O  O12  16  0.20020000  0.14490000  0.56300000  1
  O  O13  16  0.20140000  0.07080000  0.93950000  1
  O  O14  16  0.20900000  0.07050000  0.40880000  1
  O  O15  8  0.00000000  0.04150000  0.19350000  1
  O  O16  8  0.00000000  0.16960000  0.79750000  1
  O  O17  8  0.08170000  0.25000000  0.86070000  1
  O  O18  8  0.20330000  0.25000000  0.63220000  1
  O  O19  8  0.25000000  0.00760000  0.25000000  1
  O  O20  8  0.25000000  0.16710000  0.75000000  1
