# generated using pymatgen
data_SiO2
_symmetry_space_group_name_H-M   'P 1'
_cell_length_a   12.66900000
_cell_length_b   20.01400000
_cell_length_c   23.58000000
_cell_angle_alpha   90.00000000
_cell_angle_beta   90.00000000
_cell_angle_gamma   90.00000000
_symmetry_Int_Tables_number   1
_chemical_formula_structural   SiO2
_chemical_formula_sum   'Si96 O192'
_cell_volume   5978.88269341
_cell_formula_units_Z   96
loop_
 _symmetry_equiv_pos_site_id
 _symmetry_equiv_pos_as_xyz
  1  'x, y, z'
loop_
 _atom_site_type_symbol
 _atom_site_label
 _atom_site_symmetry_multiplicity
 _atom_site_fract_x
 _atom_site_fract_y
 _atom_site_fract_z
 _atom_site_occupancy
  Si  Si0  1  0.66340000  0.57660000  0.97170000  1.0
  Si  Si1  1  0.33660000  0.42340000  0.02830000  1.0
  Si  Si2  1  0.16340000  0.92340000  0.02830000  1.0
  Si  Si3  1  0.83660000  0.07660000  0.97170000  1.0
  Si  Si4  1  0.33660000  0.57660000  0.02830000  1.0
  Si  Si5  1  0.66340000  0.42340000  0.97170000  1.0
  Si  Si6  1  0.83660000  0.92340000  0.97170000  1.0
  Si  Si7  1  0.16340000  0.07660000  0.02830000  1.0
  Si  Si8  1  0.32290000  0.57670000  0.68490000  1.0
  Si  Si9  1  0.67710000  0.42330000  0.31510000  1.0
  Si  Si10  1  0.32290000  0.42330000  0.81510000  1.0
  Si  Si11  1  0.67710000  0.57670000  0.18490000  1.0
  Si  Si12  1  0.67710000  0.57670000  0.31510000  1.0
  Si  Si13  1  0.32290000  0.42330000  0.68490000  1.0
  Si  Si14  1  0.67710000  0.42330000  0.18490000  1.0
  Si  Si15  1  0.32290000  0.57670000  0.81510000  1.0
  Si  Si16  1  0.45210000  0.62220000  0.91940000  1.0
  Si  Si17  1  0.54790000  0.37780000  0.08060000  1.0
  Si  Si18  1  0.95210000  0.87780000  0.08060000  1.0
  Si  Si19  1  0.04790000  0.12220000  0.91940000  1.0
  Si  Si20  1  0.54790000  0.62220000  0.08060000  1.0
  Si  Si21  1  0.45210000  0.37780000  0.91940000  1.0
  Si  Si22  1  0.04790000  0.87780000  0.91940000  1.0
  Si  Si23  1  0.95210000  0.12220000  0.08060000  1.0
  Si  Si24  1  0.83080000  0.68960000  0.98080000  1.0
  Si  Si25  1  0.16920000  0.31040000  0.01920000  1.0
  Si  Si26  1  0.33080000  0.81040000  0.01920000  1.0
  Si  Si27  1  0.66920000  0.18960000  0.98080000  1.0
  Si  Si28  1  0.16920000  0.68960000  0.01920000  1.0
  Si  Si29  1  0.83080000  0.31040000  0.98080000  1.0
  Si  Si30  1  0.66920000  0.81040000  0.98080000  1.0
  Si  Si31  1  0.33080000  0.18960000  0.01920000  1.0
  Si  Si32  1  0.66570000  0.19350000  0.18470000  1.0
  Si  Si33  1  0.33430000  0.80650000  0.81530000  1.0
  Si  Si34  1  0.16570000  0.30650000  0.81530000  1.0
  Si  Si35  1  0.83430000  0.69350000  0.18470000  1.0
  Si  Si36  1  0.33430000  0.19350000  0.81530000  1.0
  Si  Si37  1  0.66570000  0.80650000  0.18470000  1.0
  Si  Si38  1  0.83430000  0.30650000  0.18470000  1.0
  Si  Si39  1  0.16570000  0.69350000  0.81530000  1.0
  Si  Si40  1  0.53300000  0.22100000  0.08090000  1.0
  Si  Si41  1  0.46700000  0.77900000  0.91910000  1.0
  Si  Si42  1  0.03300000  0.27900000  0.91910000  1.0
  Si  Si43  1  0.96700000  0.72100000  0.08090000  1.0
  Si  Si44  1  0.46700000  0.22100000  0.91910000  1.0
  Si  Si45  1  0.53300000  0.77900000  0.08090000  1.0
  Si  Si46  1  0.96700000  0.27900000  0.08090000  1.0
  Si  Si47  1  0.03300000  0.72100000  0.91910000  1.0
  Si  Si48  1  0.16340000  0.07660000  0.47170000  1.0
  Si  Si49  1  0.83660000  0.92340000  0.52830000  1.0
  Si  Si50  1  0.66340000  0.42340000  0.52830000  1.0
  Si  Si51  1  0.33660000  0.57660000  0.47170000  1.0
  Si  Si52  1  0.83660000  0.07660000  0.52830000  1.0
  Si  Si53  1  0.16340000  0.92340000  0.47170000  1.0
  Si  Si54  1  0.33660000  0.42340000  0.47170000  1.0
  Si  Si55  1  0.66340000  0.57660000  0.52830000  1.0
  Si  Si56  1  0.82290000  0.07670000  0.18490000  1.0
  Si  Si57  1  0.17710000  0.92330000  0.81510000  1.0
  Si  Si58  1  0.82290000  0.92330000  0.31510000  1.0
  Si  Si59  1  0.17710000  0.07670000  0.68490000  1.0
  Si  Si60  1  0.17710000  0.07670000  0.81510000  1.0
  Si  Si61  1  0.82290000  0.92330000  0.18490000  1.0
  Si  Si62  1  0.17710000  0.92330000  0.68490000  1.0
  Si  Si63  1  0.82290000  0.07670000  0.31510000  1.0
  Si  Si64  1  0.95210000  0.12220000  0.41940000  1.0
  Si  Si65  1  0.04790000  0.87780000  0.58060000  1.0
  Si  Si66  1  0.45210000  0.37780000  0.58060000  1.0
  Si  Si67  1  0.54790000  0.62220000  0.41940000  1.0
  Si  Si68  1  0.04790000  0.12220000  0.58060000  1.0
  Si  Si69  1  0.95210000  0.87780000  0.41940000  1.0
  Si  Si70  1  0.54790000  0.37780000  0.41940000  1.0
  Si  Si71  1  0.45210000  0.62220000  0.58060000  1.0
  Si  Si72  1  0.33080000  0.18960000  0.48080000  1.0
  Si  Si73  1  0.66920000  0.81040000  0.51920000  1.0
  Si  Si74  1  0.83080000  0.31040000  0.51920000  1.0
  Si  Si75  1  0.16920000  0.68960000  0.48080000  1.0
  Si  Si76  1  0.66920000  0.18960000  0.51920000  1.0
  Si  Si77  1  0.33080000  0.81040000  0.48080000  1.0
  Si  Si78  1  0.16920000  0.31040000  0.48080000  1.0
  Si  Si79  1  0.83080000  0.68960000  0.51920000  1.0
  Si  Si80  1  0.16570000  0.69350000  0.68470000  1.0
  Si  Si81  1  0.83430000  0.30650000  0.31530000  1.0
  Si  Si82  1  0.66570000  0.80650000  0.31530000  1.0
  Si  Si83  1  0.33430000  0.19350000  0.68470000  1.0
  Si  Si84  1  0.83430000  0.69350000  0.31530000  1.0
  Si  Si85  1  0.16570000  0.30650000  0.68470000  1.0
  Si  Si86  1  0.33430000  0.80650000  0.68470000  1.0
  Si  Si87  1  0.66570000  0.19350000  0.31530000  1.0
  Si  Si88  1  0.03300000  0.72100000  0.58090000  1.0
  Si  Si89  1  0.96700000  0.27900000  0.41910000  1.0
  Si  Si90  1  0.53300000  0.77900000  0.41910000  1.0
  Si  Si91  1  0.46700000  0.22100000  0.58090000  1.0
  Si  Si92  1  0.96700000  0.72100000  0.41910000  1.0
  Si  Si93  1  0.03300000  0.27900000  0.58090000  1.0
  Si  Si94  1  0.46700000  0.77900000  0.58090000  1.0
  Si  Si95  1  0.53300000  0.22100000  0.41910000  1.0
  O  O96  1  0.87990000  0.08250000  0.03570000  1.0
  O  O97  1  0.12010000  0.91750000  0.96430000  1.0
  O  O98  1  0.37990000  0.41750000  0.96430000  1.0
  O  O99  1  0.62010000  0.58250000  0.03570000  1.0
  O  O100  1  0.12010000  0.08250000  0.96430000  1.0
  O  O101  1  0.87990000  0.91750000  0.03570000  1.0
  O  O102  1  0.62010000  0.41750000  0.03570000  1.0
  O  O103  1  0.37990000  0.58250000  0.96430000  1.0
  O  O104  1  0.57370000  0.60110000  0.92800000  1.0
  O  O105  1  0.42630000  0.39890000  0.07200000  1.0
  O  O106  1  0.07370000  0.89890000  0.07200000  1.0
  O  O107  1  0.92630000  0.10110000  0.92800000  1.0
  O  O108  1  0.42630000  0.60110000  0.07200000  1.0
  O  O109  1  0.57370000  0.39890000  0.92800000  1.0
  O  O110  1  0.92630000  0.89890000  0.92800000  1.0
  O  O111  1  0.07370000  0.10110000  0.07200000  1.0
  O  O112  1  0.41520000  0.60380000  0.64410000  1.0
  O  O113  1  0.58480000  0.39620000  0.35590000  1.0
  O  O114  1  0.41520000  0.39620000  0.85590000  1.0
  O  O115  1  0.58480000  0.60380000  0.14410000  1.0
  O  O116  1  0.58480000  0.60380000  0.35590000  1.0
  O  O117  1  0.41520000  0.39620000  0.64410000  1.0
  O  O118  1  0.58480000  0.39620000  0.14410000  1.0
  O  O119  1  0.41520000  0.60380000  0.85590000  1.0
  O  O120  1  0.21790000  0.62090000  0.67620000  1.0
  O  O121  1  0.78210000  0.37910000  0.32380000  1.0
  O  O122  1  0.21790000  0.37910000  0.82380000  1.0
  O  O123  1  0.78210000  0.62090000  0.17620000  1.0
  O  O124  1  0.78210000  0.62090000  0.32380000  1.0
  O  O125  1  0.21790000  0.37910000  0.67620000  1.0
  O  O126  1  0.78210000  0.37910000  0.17620000  1.0
  O  O127  1  0.21790000  0.62090000  0.82380000  1.0
  O  O128  1  0.76650000  0.62290000  0.96460000  1.0
  O  O129  1  0.23350000  0.37710000  0.03540000  1.0
  O  O130  1  0.26650000  0.87710000  0.03540000  1.0
  O  O131  1  0.73350000  0.12290000  0.96460000  1.0
  O  O132  1  0.23350000  0.62290000  0.03540000  1.0
  O  O133  1  0.76650000  0.37710000  0.96460000  1.0
  O  O134  1  0.73350000  0.87710000  0.96460000  1.0
  O  O135  1  0.26650000  0.12290000  0.03540000  1.0
  O  O136  1  0.60000000  0.17620000  0.03710000  1.0
  O  O137  1  0.40000000  0.82380000  0.96290000  1.0
  O  O138  1  0.10000000  0.32380000  0.96290000  1.0
  O  O139  1  0.90000000  0.67620000  0.03710000  1.0
  O  O140  1  0.40000000  0.17620000  0.96290000  1.0
  O  O141  1  0.60000000  0.82380000  0.03710000  1.0
  O  O142  1  0.90000000  0.32380000  0.03710000  1.0
  O  O143  1  0.10000000  0.67620000  0.96290000  1.0
  O  O144  1  0.56300000  0.20020000  0.14490000  1.0
  O  O145  1  0.43700000  0.79980000  0.85510000  1.0
  O  O146  1  0.06300000  0.29980000  0.85510000  1.0
  O  O147  1  0.93700000  0.70020000  0.14490000  1.0
  O  O148  1  0.43700000  0.20020000  0.85510000  1.0
  O  O149  1  0.56300000  0.79980000  0.14490000  1.0
  O  O150  1  0.93700000  0.29980000  0.14490000  1.0
  O  O151  1  0.06300000  0.70020000  0.85510000  1.0
  O  O152  1  0.93950000  0.20140000  0.07080000  1.0
  O  O153  1  0.06050000  0.79860000  0.92920000  1.0
  O  O154  1  0.43950000  0.29860000  0.92920000  1.0
  O  O155  1  0.56050000  0.70140000  0.07080000  1.0
  O  O156  1  0.06050000  0.20140000  0.92920000  1.0
  O  O157  1  0.93950000  0.79860000  0.07080000  1.0
  O  O158  1  0.56050000  0.29860000  0.07080000  1.0
  O  O159  1  0.43950000  0.70140000  0.92920000  1.0
  O  O160  1  0.40880000  0.20900000  0.07050000  1.0
  O  O161  1  0.59120000  0.79100000  0.92950000  1.0
  O  O162  1  0.90880000  0.29100000  0.92950000  1.0
  O  O163  1  0.09120000  0.70900000  0.07050000  1.0
  O  O164  1  0.59120000  0.20900000  0.92950000  1.0
  O  O165  1  0.40880000  0.79100000  0.07050000  1.0
  O  O166  1  0.09120000  0.29100000  0.07050000  1.0
  O  O167  1  0.90880000  0.70900000  0.92950000  1.0
  O  O168  1  0.69350000  0.50000000  0.54150000  1.0
  O  O169  1  0.30650000  0.50000000  0.45850000  1.0
  O  O170  1  0.69350000  0.50000000  0.95850000  1.0
  O  O171  1  0.30650000  0.50000000  0.04150000  1.0
  O  O172  1  0.29750000  0.50000000  0.66960000  1.0
  O  O173  1  0.70250000  0.50000000  0.33040000  1.0
  O  O174  1  0.29750000  0.50000000  0.83040000  1.0
  O  O175  1  0.70250000  0.50000000  0.16960000  1.0
  O  O176  1  0.36070000  0.58170000  0.75000000  1.0
  O  O177  1  0.63930000  0.41830000  0.25000000  1.0
  O  O178  1  0.36070000  0.41830000  0.75000000  1.0
  O  O179  1  0.63930000  0.58170000  0.25000000  1.0
  O  O180  1  0.13220000  0.70330000  0.75000000  1.0
  O  O181  1  0.86780000  0.29670000  0.25000000  1.0
  O  O182  1  0.13220000  0.29670000  0.75000000  1.0
  O  O183  1  0.86780000  0.70330000  0.25000000  1.0
  O  O184  1  0.25000000  0.25000000  0.00760000  1.0
  O  O185  1  0.75000000  0.75000000  0.99240000  1.0
  O  O186  1  0.75000000  0.25000000  0.99240000  1.0
  O  O187  1  0.25000000  0.75000000  0.00760000  1.0
  O  O188  1  0.75000000  0.25000000  0.16710000  1.0
  O  O189  1  0.25000000  0.75000000  0.83290000  1.0
  O  O190  1  0.25000000  0.25000000  0.83290000  1.0
  O  O191  1  0.75000000  0.75000000  0.16710000  1.0
  O  O192  1  0.37990000  0.58250000  0.53570000  1.0
  O  O193  1  0.62010000  0.41750000  0.46430000  1.0
  O  O194  1  0.87990000  0.91750000  0.46430000  1.0
  O  O195  1  0.12010000  0.08250000  0.53570000  1.0
  O  O196  1  0.62010000  0.58250000  0.46430000  1.0
  O  O197  1  0.37990000  0.41750000  0.53570000  1.0
  O  O198  1  0.12010000  0.91750000  0.53570000  1.0
  O  O199  1  0.87990000  0.08250000  0.46430000  1.0
  O  O200  1  0.07370000  0.10110000  0.42800000  1.0
  O  O201  1  0.92630000  0.89890000  0.57200000  1.0
  O  O202  1  0.57370000  0.39890000  0.57200000  1.0
  O  O203  1  0.42630000  0.60110000  0.42800000  1.0
  O  O204  1  0.92630000  0.10110000  0.57200000  1.0
  O  O205  1  0.07370000  0.89890000  0.42800000  1.0
  O  O206  1  0.42630000  0.39890000  0.42800000  1.0
  O  O207  1  0.57370000  0.60110000  0.57200000  1.0
  O  O208  1  0.91520000  0.10380000  0.14410000  1.0
  O  O209  1  0.08480000  0.89620000  0.85590000  1.0
  O  O210  1  0.91520000  0.89620000  0.35590000  1.0
  O  O211  1  0.08480000  0.10380000  0.64410000  1.0
  O  O212  1  0.08480000  0.10380000  0.85590000  1.0
  O  O213  1  0.91520000  0.89620000  0.14410000  1.0
  O  O214  1  0.08480000  0.89620000  0.64410000  1.0
  O  O215  1  0.91520000  0.10380000  0.35590000  1.0
  O  O216  1  0.71790000  0.12090000  0.17620000  1.0
  O  O217  1  0.28210000  0.87910000  0.82380000  1.0
  O  O218  1  0.71790000  0.87910000  0.32380000  1.0
  O  O219  1  0.28210000  0.12090000  0.67620000  1.0
  O  O220  1  0.28210000  0.12090000  0.82380000  1.0
  O  O221  1  0.71790000  0.87910000  0.17620000  1.0
  O  O222  1  0.28210000  0.87910000  0.67620000  1.0
  O  O223  1  0.71790000  0.12090000  0.32380000  1.0
  O  O224  1  0.26650000  0.12290000  0.46460000  1.0
  O  O225  1  0.73350000  0.87710000  0.53540000  1.0
  O  O226  1  0.76650000  0.37710000  0.53540000  1.0
  O  O227  1  0.23350000  0.62290000  0.46460000  1.0
  O  O228  1  0.73350000  0.12290000  0.53540000  1.0
  O  O229  1  0.26650000  0.87710000  0.46460000  1.0
  O  O230  1  0.23350000  0.37710000  0.46460000  1.0
  O  O231  1  0.76650000  0.62290000  0.53540000  1.0
  O  O232  1  0.10000000  0.67620000  0.53710000  1.0
  O  O233  1  0.90000000  0.32380000  0.46290000  1.0
  O  O234  1  0.60000000  0.82380000  0.46290000  1.0
  O  O235  1  0.40000000  0.17620000  0.53710000  1.0
  O  O236  1  0.90000000  0.67620000  0.46290000  1.0
  O  O237  1  0.10000000  0.32380000  0.53710000  1.0
  O  O238  1  0.40000000  0.82380000  0.53710000  1.0
  O  O239  1  0.60000000  0.17620000  0.46290000  1.0
  O  O240  1  0.06300000  0.70020000  0.64490000  1.0
  O  O241  1  0.93700000  0.29980000  0.35510000  1.0
  O  O242  1  0.56300000  0.79980000  0.35510000  1.0
  O  O243  1  0.43700000  0.20020000  0.64490000  1.0
  O  O244  1  0.93700000  0.70020000  0.35510000  1.0
  O  O245  1  0.06300000  0.29980000  0.64490000  1.0
  O  O246  1  0.43700000  0.79980000  0.64490000  1.0
  O  O247  1  0.56300000  0.20020000  0.35510000  1.0
  O  O248  1  0.43950000  0.70140000  0.57080000  1.0
  O  O249  1  0.56050000  0.29860000  0.42920000  1.0
  O  O250  1  0.93950000  0.79860000  0.42920000  1.0
  O  O251  1  0.06050000  0.20140000  0.57080000  1.0
  O  O252  1  0.56050000  0.70140000  0.42920000  1.0
  O  O253  1  0.43950000  0.29860000  0.57080000  1.0
  O  O254  1  0.06050000  0.79860000  0.57080000  1.0
  O  O255  1  0.93950000  0.20140000  0.42920000  1.0
  O  O256  1  0.90880000  0.70900000  0.57050000  1.0
  O  O257  1  0.09120000  0.29100000  0.42950000  1.0
  O  O258  1  0.40880000  0.79100000  0.42950000  1.0
  O  O259  1  0.59120000  0.20900000  0.57050000  1.0
  O  O260  1  0.09120000  0.70900000  0.42950000  1.0
  O  O261  1  0.90880000  0.29100000  0.57050000  1.0
  O  O262  1  0.59120000  0.79100000  0.57050000  1.0
  O  O263  1  0.40880000  0.20900000  0.42950000  1.0
  O  O264  1  0.19350000  0.00000000  0.04150000  1.0
  O  O265  1  0.80650000  0.00000000  0.95850000  1.0
  O  O266  1  0.19350000  0.00000000  0.45850000  1.0
  O  O267  1  0.80650000  0.00000000  0.54150000  1.0
  O  O268  1  0.79750000  0.00000000  0.16960000  1.0
  O  O269  1  0.20250000  0.00000000  0.83040000  1.0
  O  O270  1  0.79750000  0.00000000  0.33040000  1.0
  O  O271  1  0.20250000  0.00000000  0.66960000  1.0
  O  O272  1  0.86070000  0.08170000  0.25000000  1.0
  O  O273  1  0.13930000  0.91830000  0.75000000  1.0
  O  O274  1  0.86070000  0.91830000  0.25000000  1.0
  O  O275  1  0.13930000  0.08170000  0.75000000  1.0
  O  O276  1  0.63220000  0.20330000  0.25000000  1.0
  O  O277  1  0.36780000  0.79670000  0.75000000  1.0
  O  O278  1  0.63220000  0.79670000  0.25000000  1.0
  O  O279  1  0.36780000  0.20330000  0.75000000  1.0
  O  O280  1  0.75000000  0.75000000  0.50760000  1.0
  O  O281  1  0.25000000  0.25000000  0.49240000  1.0
  O  O282  1  0.25000000  0.75000000  0.49240000  1.0
  O  O283  1  0.75000000  0.25000000  0.50760000  1.0
  O  O284  1  0.25000000  0.75000000  0.66710000  1.0
  O  O285  1  0.75000000  0.25000000  0.33290000  1.0
  O  O286  1  0.75000000  0.75000000  0.33290000  1.0
  O  O287  1  0.25000000  0.25000000  0.66710000  1.0
