# generated using pymatgen
data_SiO2
_symmetry_space_group_name_H-M   'P 1'
_cell_length_a   13.67500000
_cell_length_b   13.67500000
_cell_length_c   14.76700000
_cell_angle_alpha   90.00000000
_cell_angle_beta   90.00000000
_cell_angle_gamma   120.00000000
_symmetry_Int_Tables_number   1
_chemical_formula_structural   SiO2
_chemical_formula_sum   'Si36 O72'
_cell_volume   2391.53960138
_cell_formula_units_Z   36
loop_
 _symmetry_equiv_pos_site_id
 _symmetry_equiv_pos_as_xyz
  1  'x, y, z'
loop_
 _atom_site_type_symbol
 _atom_site_label
 _atom_site_symmetry_multiplicity
 _atom_site_fract_x
 _atom_site_fract_y
 _atom_site_fract_z
 _atom_site_occupancy
  Si  Si0  1  0.89336667  0.55973333  0.43843333  1.0
  Si  Si1  1  0.66636667  0.10663333  0.43843333  1.0
  Si  Si2  1  0.44026667  0.33363333  0.43843333  1.0
  Si  Si3  1  0.10663333  0.66636667  0.56156667  1.0
  Si  Si4  1  0.55973333  0.89336667  0.56156667  1.0
  Si  Si5  1  0.33363333  0.44026667  0.56156667  1.0
  Si  Si6  1  0.10663333  0.44026667  0.56156667  1.0
  Si  Si7  1  0.33363333  0.89336667  0.56156667  1.0
  Si  Si8  1  0.55973333  0.66636667  0.56156667  1.0
  Si  Si9  1  0.89336667  0.33363333  0.43843333  1.0
  Si  Si10  1  0.44026667  0.10663333  0.43843333  1.0
  Si  Si11  1  0.66636667  0.55973333  0.43843333  1.0
  Si  Si12  1  0.56003333  0.89306667  0.77176667  1.0
  Si  Si13  1  0.33303333  0.43996667  0.77176667  1.0
  Si  Si14  1  0.10693333  0.66696667  0.77176667  1.0
  Si  Si15  1  0.77330000  0.99970000  0.89490000  1.0
  Si  Si16  1  0.22640000  0.22670000  0.89490000  1.0
  Si  Si17  1  0.00030000  0.77360000  0.89490000  1.0
  Si  Si18  1  0.77330000  0.77360000  0.89490000  1.0
  Si  Si19  1  0.00030000  0.22670000  0.89490000  1.0
  Si  Si20  1  0.22640000  0.99970000  0.89490000  1.0
  Si  Si21  1  0.56003333  0.66696667  0.77176667  1.0
  Si  Si22  1  0.10693333  0.43996667  0.77176667  1.0
  Si  Si23  1  0.33303333  0.89306667  0.77176667  1.0
  Si  Si24  1  0.22670000  0.22640000  0.10510000  1.0
  Si  Si25  1  0.99970000  0.77330000  0.10510000  1.0
  Si  Si26  1  0.77360000  0.00030000  0.10510000  1.0
  Si  Si27  1  0.43996667  0.33303333  0.22823333  1.0
  Si  Si28  1  0.89306667  0.56003333  0.22823333  1.0
  Si  Si29  1  0.66696667  0.10693333  0.22823333  1.0
  Si  Si30  1  0.43996667  0.10693333  0.22823333  1.0
  Si  Si31  1  0.66696667  0.56003333  0.22823333  1.0
  Si  Si32  1  0.89306667  0.33303333  0.22823333  1.0
  Si  Si33  1  0.22670000  0.00030000  0.10510000  1.0
  Si  Si34  1  0.77360000  0.77330000  0.10510000  1.0
  Si  Si35  1  0.99970000  0.22640000  0.10510000  1.0
  O  O36  1  0.19600000  0.09800000  0.12270000  1.0
  O  O37  1  0.90200000  0.80400000  0.12270000  1.0
  O  O38  1  0.90200000  0.09800000  0.12270000  1.0
  O  O39  1  0.80400000  0.90200000  0.87730000  1.0
  O  O40  1  0.09800000  0.19600000  0.87730000  1.0
  O  O41  1  0.09800000  0.90200000  0.87730000  1.0
  O  O42  1  0.64340000  0.00000000  0.50000000  1.0
  O  O43  1  0.35660000  0.35660000  0.50000000  1.0
  O  O44  1  0.00000000  0.64340000  0.50000000  1.0
  O  O45  1  0.35660000  0.00000000  0.50000000  1.0
  O  O46  1  0.64340000  0.64340000  0.50000000  1.0
  O  O47  1  0.00000000  0.35660000  0.50000000  1.0
  O  O48  1  0.42616667  0.21308333  0.46483333  1.0
  O  O49  1  0.78691667  0.57383333  0.46483333  1.0
  O  O50  1  0.78691667  0.21308333  0.46483333  1.0
  O  O51  1  0.57383333  0.78691667  0.53516667  1.0
  O  O52  1  0.21308333  0.42616667  0.53516667  1.0
  O  O53  1  0.21308333  0.78691667  0.53516667  1.0
  O  O54  1  0.40896667  0.33333333  0.33333333  1.0
  O  O55  1  0.92436667  0.59103333  0.33333333  1.0
  O  O56  1  0.66666667  0.07563333  0.33333333  1.0
  O  O57  1  0.92436667  0.33333333  0.33333333  1.0
  O  O58  1  0.40896667  0.07563333  0.33333333  1.0
  O  O59  1  0.66666667  0.59103333  0.33333333  1.0
  O  O60  1  0.86266667  0.43133333  0.45603333  1.0
  O  O61  1  0.56866667  0.13733333  0.45603333  1.0
  O  O62  1  0.56866667  0.43133333  0.45603333  1.0
  O  O63  1  0.47066667  0.23533333  0.21063333  1.0
  O  O64  1  0.76466667  0.52933333  0.21063333  1.0
  O  O65  1  0.76466667  0.23533333  0.21063333  1.0
  O  O66  1  0.31006667  0.33333333  0.83333333  1.0
  O  O67  1  0.02326667  0.68993333  0.83333333  1.0
  O  O68  1  0.66666667  0.97673333  0.83333333  1.0
  O  O69  1  0.02326667  0.33333333  0.83333333  1.0
  O  O70  1  0.31006667  0.97673333  0.83333333  1.0
  O  O71  1  0.66666667  0.68993333  0.83333333  1.0
  O  O72  1  0.09283333  0.54641667  0.79816667  1.0
  O  O73  1  0.45358333  0.90716667  0.79816667  1.0
  O  O74  1  0.45358333  0.54641667  0.79816667  1.0
  O  O75  1  0.24050000  0.12025000  0.86850000  1.0
  O  O76  1  0.87975000  0.75950000  0.86850000  1.0
  O  O77  1  0.87975000  0.12025000  0.86850000  1.0
  O  O78  1  0.07563333  0.66666667  0.66666667  1.0
  O  O79  1  0.59103333  0.92436667  0.66666667  1.0
  O  O80  1  0.33333333  0.40896667  0.66666667  1.0
  O  O81  1  0.59103333  0.66666667  0.66666667  1.0
  O  O82  1  0.07563333  0.40896667  0.66666667  1.0
  O  O83  1  0.33333333  0.92436667  0.66666667  1.0
  O  O84  1  0.52933333  0.76466667  0.78936667  1.0
  O  O85  1  0.23533333  0.47066667  0.78936667  1.0
  O  O86  1  0.23533333  0.76466667  0.78936667  1.0
  O  O87  1  0.13733333  0.56866667  0.54396667  1.0
  O  O88  1  0.43133333  0.86266667  0.54396667  1.0
  O  O89  1  0.43133333  0.56866667  0.54396667  1.0
  O  O90  1  0.97673333  0.66666667  0.16666667  1.0
  O  O91  1  0.68993333  0.02326667  0.16666667  1.0
  O  O92  1  0.33333333  0.31006667  0.16666667  1.0
  O  O93  1  0.68993333  0.66666667  0.16666667  1.0
  O  O94  1  0.97673333  0.31006667  0.16666667  1.0
  O  O95  1  0.33333333  0.02326667  0.16666667  1.0
  O  O96  1  0.75950000  0.87975000  0.13150000  1.0
  O  O97  1  0.12025000  0.24050000  0.13150000  1.0
  O  O98  1  0.12025000  0.87975000  0.13150000  1.0
  O  O99  1  0.90716667  0.45358333  0.20183333  1.0
  O  O100  1  0.54641667  0.09283333  0.20183333  1.0
  O  O101  1  0.54641667  0.45358333  0.20183333  1.0
  O  O102  1  0.74230000  0.00000000  0.00000000  1.0
  O  O103  1  0.25770000  0.25770000  0.00000000  1.0
  O  O104  1  0.00000000  0.74230000  0.00000000  1.0
  O  O105  1  0.25770000  0.00000000  0.00000000  1.0
  O  O106  1  0.74230000  0.74230000  0.00000000  1.0
  O  O107  1  0.00000000  0.25770000  0.00000000  1.0
