# generated using pymatgen
data_SiO2
_symmetry_space_group_name_H-M   'P 1'
_cell_length_a   22.68400000
_cell_length_b   13.37300000
_cell_length_c   12.55300000
_cell_angle_alpha   90.00000000
_cell_angle_beta   110.52100000
_cell_angle_gamma   90.00000000
_symmetry_Int_Tables_number   1
_chemical_formula_structural   SiO2
_chemical_formula_sum   'Si56 O112'
_cell_volume   3566.35105268
_cell_formula_units_Z   56
loop_
 _symmetry_equiv_pos_site_id
 _symmetry_equiv_pos_as_xyz
  1  'x, y, z'
loop_
 _atom_site_type_symbol
 _atom_site_label
 _atom_site_symmetry_multiplicity
 _atom_site_fract_x
 _atom_site_fract_y
 _atom_site_fract_z
 _atom_site_occupancy
  Si  Si0  1  0.57090000  0.38350000  0.51750000  1.0
  Si  Si1  1  0.42910000  0.38350000  0.48250000  1.0
  Si  Si2  1  0.42910000  0.61650000  0.48250000  1.0
  Si  Si3  1  0.57090000  0.61650000  0.51750000  1.0
  Si  Si4  1  0.65980000  0.30170000  0.75040000  1.0
  Si  Si5  1  0.34020000  0.30170000  0.24960000  1.0
  Si  Si6  1  0.34020000  0.69830000  0.24960000  1.0
  Si  Si7  1  0.65980000  0.69830000  0.75040000  1.0
  Si  Si8  1  0.57250000  0.38510000  0.26900000  1.0
  Si  Si9  1  0.42750000  0.38510000  0.73100000  1.0
  Si  Si10  1  0.42750000  0.61490000  0.73100000  1.0
  Si  Si11  1  0.57250000  0.61490000  0.26900000  1.0
  Si  Si12  1  0.28450000  0.88520000  0.89740000  1.0
  Si  Si13  1  0.71550000  0.88520000  0.10260000  1.0
  Si  Si14  1  0.71550000  0.11480000  0.10260000  1.0
  Si  Si15  1  0.28450000  0.11480000  0.89740000  1.0
  Si  Si16  1  0.27080000  0.88540000  0.13470000  1.0
  Si  Si17  1  0.72920000  0.88540000  0.86530000  1.0
  Si  Si18  1  0.72920000  0.11460000  0.86530000  1.0
  Si  Si19  1  0.27080000  0.11460000  0.13470000  1.0
  Si  Si20  1  0.57190000  0.38160000  0.88340000  1.0
  Si  Si21  1  0.42810000  0.38160000  0.11660000  1.0
  Si  Si22  1  0.42810000  0.61840000  0.11660000  1.0
  Si  Si23  1  0.57190000  0.61840000  0.88340000  1.0
  Si  Si24  1  0.64150000  0.30100000  0.12240000  1.0
  Si  Si25  1  0.35850000  0.30100000  0.87760000  1.0
  Si  Si26  1  0.35850000  0.69900000  0.87760000  1.0
  Si  Si27  1  0.64150000  0.69900000  0.12240000  1.0
  Si  Si28  1  0.07090000  0.88350000  0.51750000  1.0
  Si  Si29  1  0.92910000  0.88350000  0.48250000  1.0
  Si  Si30  1  0.92910000  0.11650000  0.48250000  1.0
  Si  Si31  1  0.07090000  0.11650000  0.51750000  1.0
  Si  Si32  1  0.15980000  0.80170000  0.75040000  1.0
  Si  Si33  1  0.84020000  0.80170000  0.24960000  1.0
  Si  Si34  1  0.84020000  0.19830000  0.24960000  1.0
  Si  Si35  1  0.15980000  0.19830000  0.75040000  1.0
  Si  Si36  1  0.07250000  0.88510000  0.26900000  1.0
  Si  Si37  1  0.92750000  0.88510000  0.73100000  1.0
  Si  Si38  1  0.92750000  0.11490000  0.73100000  1.0
  Si  Si39  1  0.07250000  0.11490000  0.26900000  1.0
  Si  Si40  1  0.78450000  0.38520000  0.89740000  1.0
  Si  Si41  1  0.21550000  0.38520000  0.10260000  1.0
  Si  Si42  1  0.21550000  0.61480000  0.10260000  1.0
  Si  Si43  1  0.78450000  0.61480000  0.89740000  1.0
  Si  Si44  1  0.77080000  0.38540000  0.13470000  1.0
  Si  Si45  1  0.22920000  0.38540000  0.86530000  1.0
  Si  Si46  1  0.22920000  0.61460000  0.86530000  1.0
  Si  Si47  1  0.77080000  0.61460000  0.13470000  1.0
  Si  Si48  1  0.07190000  0.88160000  0.88340000  1.0
  Si  Si49  1  0.92810000  0.88160000  0.11660000  1.0
  Si  Si50  1  0.92810000  0.11840000  0.11660000  1.0
  Si  Si51  1  0.07190000  0.11840000  0.88340000  1.0
  Si  Si52  1  0.14150000  0.80100000  0.12240000  1.0
  Si  Si53  1  0.85850000  0.80100000  0.87760000  1.0
  Si  Si54  1  0.85850000  0.19900000  0.87760000  1.0
  Si  Si55  1  0.14150000  0.19900000  0.12240000  1.0
  O  O56  1  0.50000000  0.34940000  0.50000000  1.0
  O  O57  1  0.50000000  0.65060000  0.50000000  1.0
  O  O58  1  0.07960000  0.00000000  0.55150000  1.0
  O  O59  1  0.92040000  0.00000000  0.44850000  1.0
  O  O60  1  0.61960000  0.31820000  0.61770000  1.0
  O  O61  1  0.38040000  0.31820000  0.38230000  1.0
  O  O62  1  0.38040000  0.68180000  0.38230000  1.0
  O  O63  1  0.61960000  0.68180000  0.61770000  1.0
  O  O64  1  0.58460000  0.36590000  0.40160000  1.0
  O  O65  1  0.41540000  0.36590000  0.59840000  1.0
  O  O66  1  0.41540000  0.63410000  0.59840000  1.0
  O  O67  1  0.58460000  0.63410000  0.40160000  1.0
  O  O68  1  0.22190000  0.87080000  0.78710000  1.0
  O  O69  1  0.77810000  0.87080000  0.21290000  1.0
  O  O70  1  0.77810000  0.12920000  0.21290000  1.0
  O  O71  1  0.22190000  0.12920000  0.78710000  1.0
  O  O72  1  0.68050000  0.18610000  0.77230000  1.0
  O  O73  1  0.31950000  0.18610000  0.22770000  1.0
  O  O74  1  0.31950000  0.81390000  0.22770000  1.0
  O  O75  1  0.68050000  0.81390000  0.77230000  1.0
  O  O76  1  0.61770000  0.33100000  0.82550000  1.0
  O  O77  1  0.38230000  0.33100000  0.17450000  1.0
  O  O78  1  0.38230000  0.66900000  0.17450000  1.0
  O  O79  1  0.61770000  0.66900000  0.82550000  1.0
  O  O80  1  0.61770000  0.31330000  0.22850000  1.0
  O  O81  1  0.38230000  0.31330000  0.77150000  1.0
  O  O82  1  0.38230000  0.68670000  0.77150000  1.0
  O  O83  1  0.61770000  0.68670000  0.22850000  1.0
  O  O84  1  0.50020000  0.36120000  0.19490000  1.0
  O  O85  1  0.49980000  0.36120000  0.80510000  1.0
  O  O86  1  0.49980000  0.63880000  0.80510000  1.0
  O  O87  1  0.50020000  0.63880000  0.19490000  1.0
  O  O88  1  0.08780000  0.00000000  0.25050000  1.0
  O  O89  1  0.91220000  0.00000000  0.74950000  1.0
  O  O90  1  0.30700000  0.00000000  0.90590000  1.0
  O  O91  1  0.69300000  0.00000000  0.09410000  1.0
  O  O92  1  0.26950000  0.85560000  0.00970000  1.0
  O  O93  1  0.73050000  0.85560000  0.99030000  1.0
  O  O94  1  0.73050000  0.14440000  0.99030000  1.0
  O  O95  1  0.26950000  0.14440000  0.00970000  1.0
  O  O96  1  0.33930000  0.81370000  0.88680000  1.0
  O  O97  1  0.66070000  0.81370000  0.11320000  1.0
  O  O98  1  0.66070000  0.18630000  0.11320000  1.0
  O  O99  1  0.33930000  0.18630000  0.88680000  1.0
  O  O100  1  0.29280000  0.00000000  0.16100000  1.0
  O  O101  1  0.70720000  0.00000000  0.83900000  1.0
  O  O102  1  0.20160000  0.87200000  0.14080000  1.0
  O  O103  1  0.79840000  0.87200000  0.85920000  1.0
  O  O104  1  0.79840000  0.12800000  0.85920000  1.0
  O  O105  1  0.20160000  0.12800000  0.14080000  1.0
  O  O106  1  0.08500000  0.00000000  0.89650000  1.0
  O  O107  1  0.91500000  0.00000000  0.10350000  1.0
  O  O108  1  0.58570000  0.33290000  0.00720000  1.0
  O  O109  1  0.41430000  0.33290000  0.99280000  1.0
  O  O110  1  0.41430000  0.66710000  0.99280000  1.0
  O  O111  1  0.58570000  0.66710000  0.00720000  1.0
  O  O112  1  0.00000000  0.84940000  0.50000000  1.0
  O  O113  1  0.00000000  0.15060000  0.50000000  1.0
  O  O114  1  0.57960000  0.50000000  0.55150000  1.0
  O  O115  1  0.42040000  0.50000000  0.44850000  1.0
  O  O116  1  0.11960000  0.81820000  0.61770000  1.0
  O  O117  1  0.88040000  0.81820000  0.38230000  1.0
  O  O118  1  0.88040000  0.18180000  0.38230000  1.0
  O  O119  1  0.11960000  0.18180000  0.61770000  1.0
  O  O120  1  0.08460000  0.86590000  0.40160000  1.0
  O  O121  1  0.91540000  0.86590000  0.59840000  1.0
  O  O122  1  0.91540000  0.13410000  0.59840000  1.0
  O  O123  1  0.08460000  0.13410000  0.40160000  1.0
  O  O124  1  0.72190000  0.37080000  0.78710000  1.0
  O  O125  1  0.27810000  0.37080000  0.21290000  1.0
  O  O126  1  0.27810000  0.62920000  0.21290000  1.0
  O  O127  1  0.72190000  0.62920000  0.78710000  1.0
  O  O128  1  0.18050000  0.68610000  0.77230000  1.0
  O  O129  1  0.81950000  0.68610000  0.22770000  1.0
  O  O130  1  0.81950000  0.31390000  0.22770000  1.0
  O  O131  1  0.18050000  0.31390000  0.77230000  1.0
  O  O132  1  0.11770000  0.83100000  0.82550000  1.0
  O  O133  1  0.88230000  0.83100000  0.17450000  1.0
  O  O134  1  0.88230000  0.16900000  0.17450000  1.0
  O  O135  1  0.11770000  0.16900000  0.82550000  1.0
  O  O136  1  0.11770000  0.81330000  0.22850000  1.0
  O  O137  1  0.88230000  0.81330000  0.77150000  1.0
  O  O138  1  0.88230000  0.18670000  0.77150000  1.0
  O  O139  1  0.11770000  0.18670000  0.22850000  1.0
  O  O140  1  0.00020000  0.86120000  0.19490000  1.0
  O  O141  1  0.99980000  0.86120000  0.80510000  1.0
  O  O142  1  0.99980000  0.13880000  0.80510000  1.0
  O  O143  1  0.00020000  0.13880000  0.19490000  1.0
  O  O144  1  0.58780000  0.50000000  0.25050000  1.0
  O  O145  1  0.41220000  0.50000000  0.74950000  1.0
  O  O146  1  0.80700000  0.50000000  0.90590000  1.0
  O  O147  1  0.19300000  0.50000000  0.09410000  1.0
  O  O148  1  0.76950000  0.35560000  0.00970000  1.0
  O  O149  1  0.23050000  0.35560000  0.99030000  1.0
  O  O150  1  0.23050000  0.64440000  0.99030000  1.0
  O  O151  1  0.76950000  0.64440000  0.00970000  1.0
  O  O152  1  0.83930000  0.31370000  0.88680000  1.0
  O  O153  1  0.16070000  0.31370000  0.11320000  1.0
  O  O154  1  0.16070000  0.68630000  0.11320000  1.0
  O  O155  1  0.83930000  0.68630000  0.88680000  1.0
  O  O156  1  0.79280000  0.50000000  0.16100000  1.0
  O  O157  1  0.20720000  0.50000000  0.83900000  1.0
  O  O158  1  0.70160000  0.37200000  0.14080000  1.0
  O  O159  1  0.29840000  0.37200000  0.85920000  1.0
  O  O160  1  0.29840000  0.62800000  0.85920000  1.0
  O  O161  1  0.70160000  0.62800000  0.14080000  1.0
  O  O162  1  0.58500000  0.50000000  0.89650000  1.0
  O  O163  1  0.41500000  0.50000000  0.10350000  1.0
  O  O164  1  0.08570000  0.83290000  0.00720000  1.0
  O  O165  1  0.91430000  0.83290000  0.99280000  1.0
  O  O166  1  0.91430000  0.16710000  0.99280000  1.0
  O  O167  1  0.08570000  0.16710000  0.00720000  1.0
