# generated using pymatgen
data_SiO2
_symmetry_space_group_name_H-M   'P 1'
_cell_length_a   21.99500011
_cell_length_b   21.99500011
_cell_length_c   21.15900000
_cell_angle_alpha   90.00000000
_cell_angle_beta   90.00000000
_cell_angle_gamma   120.00000000
_symmetry_Int_Tables_number   1
_chemical_formula_structural   SiO2
_chemical_formula_sum   'Si132 O264'
_cell_volume   8864.89727088
_cell_formula_units_Z   132
loop_
 _symmetry_equiv_pos_site_id
 _symmetry_equiv_pos_as_xyz
  1  'x, y, z'
loop_
 _atom_site_type_symbol
 _atom_site_label
 _atom_site_symmetry_multiplicity
 _atom_site_fract_x
 _atom_site_fract_y
 _atom_site_fract_z
 _atom_site_occupancy
  Si  Si0  1  0.07800000  0.29070000  0.25510000  1.0
  Si  Si1  1  0.92200000  0.70930000  0.74490000  1.0
  Si  Si2  1  0.78730000  0.07800000  0.25510000  1.0
  Si  Si3  1  0.21270000  0.92200000  0.74490000  1.0
  Si  Si4  1  0.70930000  0.78730000  0.25510000  1.0
  Si  Si5  1  0.29070000  0.21270000  0.74490000  1.0
  Si  Si6  1  0.92200000  0.70930000  0.25510000  1.0
  Si  Si7  1  0.07800000  0.29070000  0.74490000  1.0
  Si  Si8  1  0.21270000  0.92200000  0.25510000  1.0
  Si  Si9  1  0.78730000  0.07800000  0.74490000  1.0
  Si  Si10  1  0.29070000  0.21270000  0.25510000  1.0
  Si  Si11  1  0.70930000  0.78730000  0.74490000  1.0
  Si  Si12  1  0.70930000  0.92200000  0.74490000  1.0
  Si  Si13  1  0.29070000  0.07800000  0.25510000  1.0
  Si  Si14  1  0.92200000  0.21270000  0.74490000  1.0
  Si  Si15  1  0.07800000  0.78730000  0.25510000  1.0
  Si  Si16  1  0.21270000  0.29070000  0.74490000  1.0
  Si  Si17  1  0.78730000  0.70930000  0.25510000  1.0
  Si  Si18  1  0.29070000  0.07800000  0.74490000  1.0
  Si  Si19  1  0.70930000  0.92200000  0.25510000  1.0
  Si  Si20  1  0.07800000  0.78730000  0.74490000  1.0
  Si  Si21  1  0.92200000  0.21270000  0.25510000  1.0
  Si  Si22  1  0.78730000  0.70930000  0.74490000  1.0
  Si  Si23  1  0.21270000  0.29070000  0.25510000  1.0
  Si  Si24  1  0.07970000  0.46890000  0.42750000  1.0
  Si  Si25  1  0.92030000  0.53110000  0.57250000  1.0
  Si  Si26  1  0.61080000  0.07970000  0.42750000  1.0
  Si  Si27  1  0.38920000  0.92030000  0.57250000  1.0
  Si  Si28  1  0.53110000  0.61080000  0.42750000  1.0
  Si  Si29  1  0.46890000  0.38920000  0.57250000  1.0
  Si  Si30  1  0.92030000  0.53110000  0.42750000  1.0
  Si  Si31  1  0.07970000  0.46890000  0.57250000  1.0
  Si  Si32  1  0.38920000  0.92030000  0.42750000  1.0
  Si  Si33  1  0.61080000  0.07970000  0.57250000  1.0
  Si  Si34  1  0.46890000  0.38920000  0.42750000  1.0
  Si  Si35  1  0.53110000  0.61080000  0.57250000  1.0
  Si  Si36  1  0.53110000  0.92030000  0.57250000  1.0
  Si  Si37  1  0.46890000  0.07970000  0.42750000  1.0
  Si  Si38  1  0.92030000  0.38920000  0.57250000  1.0
  Si  Si39  1  0.07970000  0.61080000  0.42750000  1.0
  Si  Si40  1  0.38920000  0.46890000  0.57250000  1.0
  Si  Si41  1  0.61080000  0.53110000  0.42750000  1.0
  Si  Si42  1  0.46890000  0.07970000  0.57250000  1.0
  Si  Si43  1  0.53110000  0.92030000  0.42750000  1.0
  Si  Si44  1  0.07970000  0.61080000  0.57250000  1.0
  Si  Si45  1  0.92030000  0.38920000  0.42750000  1.0
  Si  Si46  1  0.61080000  0.53110000  0.57250000  1.0
  Si  Si47  1  0.38920000  0.46890000  0.42750000  1.0
  Si  Si48  1  0.08080000  0.47030000  0.20250000  1.0
  Si  Si49  1  0.91920000  0.52970000  0.79750000  1.0
  Si  Si50  1  0.61050000  0.08080000  0.20250000  1.0
  Si  Si51  1  0.38950000  0.91920000  0.79750000  1.0
  Si  Si52  1  0.52970000  0.61050000  0.20250000  1.0
  Si  Si53  1  0.47030000  0.38950000  0.79750000  1.0
  Si  Si54  1  0.91920000  0.52970000  0.20250000  1.0
  Si  Si55  1  0.08080000  0.47030000  0.79750000  1.0
  Si  Si56  1  0.38950000  0.91920000  0.20250000  1.0
  Si  Si57  1  0.61050000  0.08080000  0.79750000  1.0
  Si  Si58  1  0.47030000  0.38950000  0.20250000  1.0
  Si  Si59  1  0.52970000  0.61050000  0.79750000  1.0
  Si  Si60  1  0.52970000  0.91920000  0.79750000  1.0
  Si  Si61  1  0.47030000  0.08080000  0.20250000  1.0
  Si  Si62  1  0.91920000  0.38950000  0.79750000  1.0
  Si  Si63  1  0.08080000  0.61050000  0.20250000  1.0
  Si  Si64  1  0.38950000  0.47030000  0.79750000  1.0
  Si  Si65  1  0.61050000  0.52970000  0.20250000  1.0
  Si  Si66  1  0.47030000  0.08080000  0.79750000  1.0
  Si  Si67  1  0.52970000  0.91920000  0.20250000  1.0
  Si  Si68  1  0.08080000  0.61050000  0.79750000  1.0
  Si  Si69  1  0.91920000  0.38950000  0.20250000  1.0
  Si  Si70  1  0.61050000  0.52970000  0.79750000  1.0
  Si  Si71  1  0.38950000  0.47030000  0.20250000  1.0
  Si  Si72  1  0.11820000  0.37470000  0.13160000  1.0
  Si  Si73  1  0.88180000  0.62530000  0.86840000  1.0
  Si  Si74  1  0.74350000  0.11820000  0.13160000  1.0
  Si  Si75  1  0.25650000  0.88180000  0.86840000  1.0
  Si  Si76  1  0.62530000  0.74350000  0.13160000  1.0
  Si  Si77  1  0.37470000  0.25650000  0.86840000  1.0
  Si  Si78  1  0.88180000  0.62530000  0.13160000  1.0
  Si  Si79  1  0.11820000  0.37470000  0.86840000  1.0
  Si  Si80  1  0.25650000  0.88180000  0.13160000  1.0
  Si  Si81  1  0.74350000  0.11820000  0.86840000  1.0
  Si  Si82  1  0.37470000  0.25650000  0.13160000  1.0
  Si  Si83  1  0.62530000  0.74350000  0.86840000  1.0
  Si  Si84  1  0.62530000  0.88180000  0.86840000  1.0
  Si  Si85  1  0.37470000  0.11820000  0.13160000  1.0
  Si  Si86  1  0.88180000  0.25650000  0.86840000  1.0
  Si  Si87  1  0.11820000  0.74350000  0.13160000  1.0
  Si  Si88  1  0.25650000  0.37470000  0.86840000  1.0
  Si  Si89  1  0.74350000  0.62530000  0.13160000  1.0
  Si  Si90  1  0.37470000  0.11820000  0.86840000  1.0
  Si  Si91  1  0.62530000  0.88180000  0.13160000  1.0
  Si  Si92  1  0.11820000  0.74350000  0.86840000  1.0
  Si  Si93  1  0.88180000  0.25650000  0.13160000  1.0
  Si  Si94  1  0.74350000  0.62530000  0.86840000  1.0
  Si  Si95  1  0.25650000  0.37470000  0.13160000  1.0
  Si  Si96  1  0.15100000  0.44080000  0.31440000  1.0
  Si  Si97  1  0.84900000  0.55920000  0.68560000  1.0
  Si  Si98  1  0.71020000  0.15100000  0.31440000  1.0
  Si  Si99  1  0.28980000  0.84900000  0.68560000  1.0
  Si  Si100  1  0.55920000  0.71020000  0.31440000  1.0
  Si  Si101  1  0.44080000  0.28980000  0.68560000  1.0
  Si  Si102  1  0.84900000  0.55920000  0.31440000  1.0
  Si  Si103  1  0.15100000  0.44080000  0.68560000  1.0
  Si  Si104  1  0.28980000  0.84900000  0.31440000  1.0
  Si  Si105  1  0.71020000  0.15100000  0.68560000  1.0
  Si  Si106  1  0.44080000  0.28980000  0.31440000  1.0
  Si  Si107  1  0.55920000  0.71020000  0.68560000  1.0
  Si  Si108  1  0.55920000  0.84900000  0.68560000  1.0
  Si  Si109  1  0.44080000  0.15100000  0.31440000  1.0
  Si  Si110  1  0.84900000  0.28980000  0.68560000  1.0
  Si  Si111  1  0.15100000  0.71020000  0.31440000  1.0
  Si  Si112  1  0.28980000  0.44080000  0.68560000  1.0
  Si  Si113  1  0.71020000  0.55920000  0.31440000  1.0
  Si  Si114  1  0.44080000  0.15100000  0.68560000  1.0
  Si  Si115  1  0.55920000  0.84900000  0.31440000  1.0
  Si  Si116  1  0.15100000  0.71020000  0.68560000  1.0
  Si  Si117  1  0.84900000  0.28980000  0.31440000  1.0
  Si  Si118  1  0.71020000  0.55920000  0.68560000  1.0
  Si  Si119  1  0.28980000  0.44080000  0.31440000  1.0
  Si  Si120  1  0.07910000  0.29650000  0.00000000  1.0
  Si  Si121  1  0.92090000  0.70350000  0.00000000  1.0
  Si  Si122  1  0.78260000  0.07910000  0.00000000  1.0
  Si  Si123  1  0.21740000  0.92090000  0.00000000  1.0
  Si  Si124  1  0.70350000  0.78260000  0.00000000  1.0
  Si  Si125  1  0.29650000  0.21740000  0.00000000  1.0
  Si  Si126  1  0.70350000  0.92090000  0.00000000  1.0
  Si  Si127  1  0.29650000  0.07910000  0.00000000  1.0
  Si  Si128  1  0.92090000  0.21740000  0.00000000  1.0
  Si  Si129  1  0.07910000  0.78260000  0.00000000  1.0
  Si  Si130  1  0.21740000  0.29650000  0.00000000  1.0
  Si  Si131  1  0.78260000  0.70350000  0.00000000  1.0
  O  O132  1  0.07640000  0.31420000  0.18340000  1.0
  O  O133  1  0.92360000  0.68580000  0.81660000  1.0
  O  O134  1  0.76220000  0.07640000  0.18340000  1.0
  O  O135  1  0.23780000  0.92360000  0.81660000  1.0
  O  O136  1  0.68580000  0.76220000  0.18340000  1.0
  O  O137  1  0.31420000  0.23780000  0.81660000  1.0
  O  O138  1  0.92360000  0.68580000  0.18340000  1.0
  O  O139  1  0.07640000  0.31420000  0.81660000  1.0
  O  O140  1  0.23780000  0.92360000  0.18340000  1.0
  O  O141  1  0.76220000  0.07640000  0.81660000  1.0
  O  O142  1  0.31420000  0.23780000  0.18340000  1.0
  O  O143  1  0.68580000  0.76220000  0.81660000  1.0
  O  O144  1  0.68580000  0.92360000  0.81660000  1.0
  O  O145  1  0.31420000  0.07640000  0.18340000  1.0
  O  O146  1  0.92360000  0.23780000  0.81660000  1.0
  O  O147  1  0.07640000  0.76220000  0.18340000  1.0
  O  O148  1  0.23780000  0.31420000  0.81660000  1.0
  O  O149  1  0.76220000  0.68580000  0.18340000  1.0
  O  O150  1  0.31420000  0.07640000  0.81660000  1.0
  O  O151  1  0.68580000  0.92360000  0.18340000  1.0
  O  O152  1  0.07640000  0.76220000  0.81660000  1.0
  O  O153  1  0.92360000  0.23780000  0.18340000  1.0
  O  O154  1  0.76220000  0.68580000  0.81660000  1.0
  O  O155  1  0.23780000  0.31420000  0.18340000  1.0
  O  O156  1  0.09080000  0.34350000  0.06200000  1.0
  O  O157  1  0.90920000  0.65650000  0.93800000  1.0
  O  O158  1  0.74730000  0.09080000  0.06200000  1.0
  O  O159  1  0.25270000  0.90920000  0.93800000  1.0
  O  O160  1  0.65650000  0.74730000  0.06200000  1.0
  O  O161  1  0.34350000  0.25270000  0.93800000  1.0
  O  O162  1  0.90920000  0.65650000  0.06200000  1.0
  O  O163  1  0.09080000  0.34350000  0.93800000  1.0
  O  O164  1  0.25270000  0.90920000  0.06200000  1.0
  O  O165  1  0.74730000  0.09080000  0.93800000  1.0
  O  O166  1  0.34350000  0.25270000  0.06200000  1.0
  O  O167  1  0.65650000  0.74730000  0.93800000  1.0
  O  O168  1  0.65650000  0.90920000  0.93800000  1.0
  O  O169  1  0.34350000  0.09080000  0.06200000  1.0
  O  O170  1  0.90920000  0.25270000  0.93800000  1.0
  O  O171  1  0.09080000  0.74730000  0.06200000  1.0
  O  O172  1  0.25270000  0.34350000  0.93800000  1.0
  O  O173  1  0.74730000  0.65650000  0.06200000  1.0
  O  O174  1  0.34350000  0.09080000  0.93800000  1.0
  O  O175  1  0.65650000  0.90920000  0.06200000  1.0
  O  O176  1  0.09080000  0.74730000  0.93800000  1.0
  O  O177  1  0.90920000  0.25270000  0.06200000  1.0
  O  O178  1  0.74730000  0.65650000  0.93800000  1.0
  O  O179  1  0.25270000  0.34350000  0.06200000  1.0
  O  O180  1  0.10420000  0.43880000  0.14480000  1.0
  O  O181  1  0.89580000  0.56120000  0.85520000  1.0
  O  O182  1  0.66540000  0.10420000  0.14480000  1.0
  O  O183  1  0.33460000  0.89580000  0.85520000  1.0
  O  O184  1  0.56120000  0.66540000  0.14480000  1.0
  O  O185  1  0.43880000  0.33460000  0.85520000  1.0
  O  O186  1  0.89580000  0.56120000  0.14480000  1.0
  O  O187  1  0.10420000  0.43880000  0.85520000  1.0
  O  O188  1  0.33460000  0.89580000  0.14480000  1.0
  O  O189  1  0.66540000  0.10420000  0.85520000  1.0
  O  O190  1  0.43880000  0.33460000  0.14480000  1.0
  O  O191  1  0.56120000  0.66540000  0.85520000  1.0
  O  O192  1  0.56120000  0.89580000  0.85520000  1.0
  O  O193  1  0.43880000  0.10420000  0.14480000  1.0
  O  O194  1  0.89580000  0.33460000  0.85520000  1.0
  O  O195  1  0.10420000  0.66540000  0.14480000  1.0
  O  O196  1  0.33460000  0.43880000  0.85520000  1.0
  O  O197  1  0.66540000  0.56120000  0.14480000  1.0
  O  O198  1  0.43880000  0.10420000  0.85520000  1.0
  O  O199  1  0.56120000  0.89580000  0.14480000  1.0
  O  O200  1  0.10420000  0.66540000  0.85520000  1.0
  O  O201  1  0.89580000  0.33460000  0.14480000  1.0
  O  O202  1  0.66540000  0.56120000  0.85520000  1.0
  O  O203  1  0.33460000  0.43880000  0.14480000  1.0
  O  O204  1  0.10670000  0.35770000  0.30120000  1.0
  O  O205  1  0.89330000  0.64230000  0.69880000  1.0
  O  O206  1  0.74900000  0.10670000  0.30120000  1.0
  O  O207  1  0.25100000  0.89330000  0.69880000  1.0
  O  O208  1  0.64230000  0.74900000  0.30120000  1.0
  O  O209  1  0.35770000  0.25100000  0.69880000  1.0
  O  O210  1  0.89330000  0.64230000  0.30120000  1.0
  O  O211  1  0.10670000  0.35770000  0.69880000  1.0
  O  O212  1  0.25100000  0.89330000  0.30120000  1.0
  O  O213  1  0.74900000  0.10670000  0.69880000  1.0
  O  O214  1  0.35770000  0.25100000  0.30120000  1.0
  O  O215  1  0.64230000  0.74900000  0.69880000  1.0
  O  O216  1  0.64230000  0.89330000  0.69880000  1.0
  O  O217  1  0.35770000  0.10670000  0.30120000  1.0
  O  O218  1  0.89330000  0.25100000  0.69880000  1.0
  O  O219  1  0.10670000  0.74900000  0.30120000  1.0
  O  O220  1  0.25100000  0.35770000  0.69880000  1.0
  O  O221  1  0.74900000  0.64230000  0.30120000  1.0
  O  O222  1  0.35770000  0.10670000  0.69880000  1.0
  O  O223  1  0.64230000  0.89330000  0.30120000  1.0
  O  O224  1  0.10670000  0.74900000  0.69880000  1.0
  O  O225  1  0.89330000  0.25100000  0.30120000  1.0
  O  O226  1  0.74900000  0.64230000  0.69880000  1.0
  O  O227  1  0.25100000  0.35770000  0.30120000  1.0
  O  O228  1  0.13000000  0.48100000  0.26280000  1.0
  O  O229  1  0.87000000  0.51900000  0.73720000  1.0
  O  O230  1  0.64900000  0.13000000  0.26280000  1.0
  O  O231  1  0.35100000  0.87000000  0.73720000  1.0
  O  O232  1  0.51900000  0.64900000  0.26280000  1.0
  O  O233  1  0.48100000  0.35100000  0.73720000  1.0
  O  O234  1  0.87000000  0.51900000  0.26280000  1.0
  O  O235  1  0.13000000  0.48100000  0.73720000  1.0
  O  O236  1  0.35100000  0.87000000  0.26280000  1.0
  O  O237  1  0.64900000  0.13000000  0.73720000  1.0
  O  O238  1  0.48100000  0.35100000  0.26280000  1.0
  O  O239  1  0.51900000  0.64900000  0.73720000  1.0
  O  O240  1  0.51900000  0.87000000  0.73720000  1.0
  O  O241  1  0.48100000  0.13000000  0.26280000  1.0
  O  O242  1  0.87000000  0.35100000  0.73720000  1.0
  O  O243  1  0.13000000  0.64900000  0.26280000  1.0
  O  O244  1  0.35100000  0.48100000  0.73720000  1.0
  O  O245  1  0.64900000  0.51900000  0.26280000  1.0
  O  O246  1  0.48100000  0.13000000  0.73720000  1.0
  O  O247  1  0.51900000  0.87000000  0.26280000  1.0
  O  O248  1  0.13000000  0.64900000  0.73720000  1.0
  O  O249  1  0.87000000  0.35100000  0.26280000  1.0
  O  O250  1  0.64900000  0.51900000  0.73720000  1.0
  O  O251  1  0.35100000  0.48100000  0.26280000  1.0
  O  O252  1  0.13250000  0.45630000  0.38410000  1.0
  O  O253  1  0.86750000  0.54370000  0.61590000  1.0
  O  O254  1  0.67620000  0.13250000  0.38410000  1.0
  O  O255  1  0.32380000  0.86750000  0.61590000  1.0
  O  O256  1  0.54370000  0.67620000  0.38410000  1.0
  O  O257  1  0.45630000  0.32380000  0.61590000  1.0
  O  O258  1  0.86750000  0.54370000  0.38410000  1.0
  O  O259  1  0.13250000  0.45630000  0.61590000  1.0
  O  O260  1  0.32380000  0.86750000  0.38410000  1.0
  O  O261  1  0.67620000  0.13250000  0.61590000  1.0
  O  O262  1  0.45630000  0.32380000  0.38410000  1.0
  O  O263  1  0.54370000  0.67620000  0.61590000  1.0
  O  O264  1  0.54370000  0.86750000  0.61590000  1.0
  O  O265  1  0.45630000  0.13250000  0.38410000  1.0
  O  O266  1  0.86750000  0.32380000  0.61590000  1.0
  O  O267  1  0.13250000  0.67620000  0.38410000  1.0
  O  O268  1  0.32380000  0.45630000  0.61590000  1.0
  O  O269  1  0.67620000  0.54370000  0.38410000  1.0
  O  O270  1  0.45630000  0.13250000  0.61590000  1.0
  O  O271  1  0.54370000  0.86750000  0.38410000  1.0
  O  O272  1  0.13250000  0.67620000  0.61590000  1.0
  O  O273  1  0.86750000  0.32380000  0.38410000  1.0
  O  O274  1  0.67620000  0.54370000  0.61590000  1.0
  O  O275  1  0.32380000  0.45630000  0.38410000  1.0
  O  O276  1  0.00000000  0.23240000  0.27640000  1.0
  O  O277  1  0.00000000  0.76760000  0.72360000  1.0
  O  O278  1  0.76760000  0.00000000  0.27640000  1.0
  O  O279  1  0.23240000  0.00000000  0.72360000  1.0
  O  O280  1  0.76760000  0.76760000  0.27640000  1.0
  O  O281  1  0.23240000  0.23240000  0.72360000  1.0
  O  O282  1  0.00000000  0.76760000  0.27640000  1.0
  O  O283  1  0.00000000  0.23240000  0.72360000  1.0
  O  O284  1  0.23240000  0.00000000  0.27640000  1.0
  O  O285  1  0.76760000  0.00000000  0.72360000  1.0
  O  O286  1  0.23240000  0.23240000  0.27640000  1.0
  O  O287  1  0.76760000  0.76760000  0.72360000  1.0
  O  O288  1  0.00000000  0.41680000  0.22010000  1.0
  O  O289  1  0.00000000  0.58320000  0.77990000  1.0
  O  O290  1  0.58320000  0.00000000  0.22010000  1.0
  O  O291  1  0.41680000  0.00000000  0.77990000  1.0
  O  O292  1  0.58320000  0.58320000  0.22010000  1.0
  O  O293  1  0.41680000  0.41680000  0.77990000  1.0
  O  O294  1  0.00000000  0.58320000  0.22010000  1.0
  O  O295  1  0.00000000  0.41680000  0.77990000  1.0
  O  O296  1  0.41680000  0.00000000  0.22010000  1.0
  O  O297  1  0.58320000  0.00000000  0.77990000  1.0
  O  O298  1  0.41680000  0.41680000  0.22010000  1.0
  O  O299  1  0.58320000  0.58320000  0.77990000  1.0
  O  O300  1  0.00000000  0.41850000  0.40460000  1.0
  O  O301  1  0.00000000  0.58150000  0.59540000  1.0
  O  O302  1  0.58150000  0.00000000  0.40460000  1.0
  O  O303  1  0.41850000  0.00000000  0.59540000  1.0
  O  O304  1  0.58150000  0.58150000  0.40460000  1.0
  O  O305  1  0.41850000  0.41850000  0.59540000  1.0
  O  O306  1  0.00000000  0.58150000  0.40460000  1.0
  O  O307  1  0.00000000  0.41850000  0.59540000  1.0
  O  O308  1  0.41850000  0.00000000  0.40460000  1.0
  O  O309  1  0.58150000  0.00000000  0.59540000  1.0
  O  O310  1  0.41850000  0.41850000  0.40460000  1.0
  O  O311  1  0.58150000  0.58150000  0.59540000  1.0
  O  O312  1  0.08750000  0.45160000  0.50000000  1.0
  O  O313  1  0.91250000  0.54840000  0.50000000  1.0
  O  O314  1  0.63590000  0.08750000  0.50000000  1.0
  O  O315  1  0.36410000  0.91250000  0.50000000  1.0
  O  O316  1  0.54840000  0.63590000  0.50000000  1.0
  O  O317  1  0.45160000  0.36410000  0.50000000  1.0
  O  O318  1  0.54840000  0.91250000  0.50000000  1.0
  O  O319  1  0.45160000  0.08750000  0.50000000  1.0
  O  O320  1  0.91250000  0.36410000  0.50000000  1.0
  O  O321  1  0.08750000  0.63590000  0.50000000  1.0
  O  O322  1  0.36410000  0.45160000  0.50000000  1.0
  O  O323  1  0.63590000  0.54840000  0.50000000  1.0
  O  O324  1  0.08970000  0.54485000  0.18220000  1.0
  O  O325  1  0.91030000  0.45515000  0.81780000  1.0
  O  O326  1  0.54485000  0.08970000  0.18220000  1.0
  O  O327  1  0.45515000  0.91030000  0.81780000  1.0
  O  O328  1  0.45515000  0.54485000  0.18220000  1.0
  O  O329  1  0.54485000  0.45515000  0.81780000  1.0
  O  O330  1  0.91030000  0.45515000  0.18220000  1.0
  O  O331  1  0.08970000  0.54485000  0.81780000  1.0
  O  O332  1  0.45515000  0.91030000  0.18220000  1.0
  O  O333  1  0.54485000  0.08970000  0.81780000  1.0
  O  O334  1  0.54485000  0.45515000  0.18220000  1.0
  O  O335  1  0.45515000  0.54485000  0.81780000  1.0
  O  O336  1  0.09920000  0.54960000  0.42170000  1.0
  O  O337  1  0.90080000  0.45040000  0.57830000  1.0
  O  O338  1  0.54960000  0.09920000  0.42170000  1.0
  O  O339  1  0.45040000  0.90080000  0.57830000  1.0
  O  O340  1  0.45040000  0.54960000  0.42170000  1.0
  O  O341  1  0.54960000  0.45040000  0.57830000  1.0
  O  O342  1  0.90080000  0.45040000  0.42170000  1.0
  O  O343  1  0.09920000  0.54960000  0.57830000  1.0
  O  O344  1  0.45040000  0.90080000  0.42170000  1.0
  O  O345  1  0.54960000  0.09920000  0.57830000  1.0
  O  O346  1  0.54960000  0.45040000  0.42170000  1.0
  O  O347  1  0.45040000  0.54960000  0.57830000  1.0
  O  O348  1  0.12895000  0.25790000  0.25960000  1.0
  O  O349  1  0.87105000  0.74210000  0.74040000  1.0
  O  O350  1  0.87105000  0.12895000  0.25960000  1.0
  O  O351  1  0.12895000  0.87105000  0.74040000  1.0
  O  O352  1  0.74210000  0.87105000  0.25960000  1.0
  O  O353  1  0.25790000  0.12895000  0.74040000  1.0
  O  O354  1  0.87105000  0.74210000  0.25960000  1.0
  O  O355  1  0.12895000  0.25790000  0.74040000  1.0
  O  O356  1  0.12895000  0.87105000  0.25960000  1.0
  O  O357  1  0.87105000  0.12895000  0.74040000  1.0
  O  O358  1  0.25790000  0.12895000  0.25960000  1.0
  O  O359  1  0.74210000  0.87105000  0.74040000  1.0
  O  O360  1  0.20095000  0.40190000  0.13690000  1.0
  O  O361  1  0.79905000  0.59810000  0.86310000  1.0
  O  O362  1  0.79905000  0.20095000  0.13690000  1.0
  O  O363  1  0.20095000  0.79905000  0.86310000  1.0
  O  O364  1  0.59810000  0.79905000  0.13690000  1.0
  O  O365  1  0.40190000  0.20095000  0.86310000  1.0
  O  O366  1  0.79905000  0.59810000  0.13690000  1.0
  O  O367  1  0.20095000  0.40190000  0.86310000  1.0
  O  O368  1  0.20095000  0.79905000  0.13690000  1.0
  O  O369  1  0.79905000  0.20095000  0.86310000  1.0
  O  O370  1  0.40190000  0.20095000  0.13690000  1.0
  O  O371  1  0.59810000  0.79905000  0.86310000  1.0
  O  O372  1  0.23360000  0.76640000  0.30970000  1.0
  O  O373  1  0.76640000  0.23360000  0.69030000  1.0
  O  O374  1  0.46720000  0.23360000  0.30970000  1.0
  O  O375  1  0.53280000  0.76640000  0.69030000  1.0
  O  O376  1  0.23360000  0.46720000  0.30970000  1.0
  O  O377  1  0.76640000  0.53280000  0.69030000  1.0
  O  O378  1  0.76640000  0.23360000  0.30970000  1.0
  O  O379  1  0.23360000  0.76640000  0.69030000  1.0
  O  O380  1  0.53280000  0.76640000  0.30970000  1.0
  O  O381  1  0.46720000  0.23360000  0.69030000  1.0
  O  O382  1  0.76640000  0.53280000  0.30970000  1.0
  O  O383  1  0.23360000  0.46720000  0.69030000  1.0
  O  O384  1  0.00000000  0.23100000  0.00000000  1.0
  O  O385  1  0.00000000  0.76900000  0.00000000  1.0
  O  O386  1  0.76900000  0.00000000  0.00000000  1.0
  O  O387  1  0.23100000  0.00000000  0.00000000  1.0
  O  O388  1  0.76900000  0.76900000  0.00000000  1.0
  O  O389  1  0.23100000  0.23100000  0.00000000  1.0
  O  O390  1  0.13430000  0.26860000  0.00000000  1.0
  O  O391  1  0.86570000  0.73140000  0.00000000  1.0
  O  O392  1  0.86570000  0.13430000  0.00000000  1.0
  O  O393  1  0.13430000  0.86570000  0.00000000  1.0
  O  O394  1  0.73140000  0.86570000  0.00000000  1.0
  O  O395  1  0.26860000  0.13430000  0.00000000  1.0
