# generated using pymatgen
data_SiO2
_symmetry_space_group_name_H-M   P6/mmm
_cell_length_a   21.99500011
_cell_length_b   21.99500011
_cell_length_c   21.15900000
_cell_angle_alpha   90.00000000
_cell_angle_beta   90.00000000
_cell_angle_gamma   120.00000000
_symmetry_Int_Tables_number   191
_chemical_formula_structural   SiO2
_chemical_formula_sum   'Si132 O264'
_cell_volume   8864.89726729
_cell_formula_units_Z   132
loop_
 _symmetry_equiv_pos_site_id
 _symmetry_equiv_pos_as_xyz
  1  'x, y, z'
  2  '-x, -y, -z'
  3  'x-y, x, z'
  4  '-x+y, -x, -z'
  5  '-y, x-y, z'
  6  'y, -x+y, -z'
  7  '-x, -y, z'
  8  'x, y, -z'
  9  '-x+y, -x, z'
  10  'x-y, x, -z'
  11  'y, -x+y, z'
  12  '-y, x-y, -z'
  13  '-y, -x, -z'
  14  'y, x, z'
  15  '-x, -x+y, -z'
  16  'x, x-y, z'
  17  '-x+y, y, -z'
  18  'x-y, -y, z'
  19  'y, x, -z'
  20  '-y, -x, z'
  21  'x, x-y, -z'
  22  '-x, -x+y, z'
  23  'x-y, -y, -z'
  24  '-x+y, y, z'
loop_
 _atom_site_type_symbol
 _atom_site_label
 _atom_site_symmetry_multiplicity
 _atom_site_fract_x
 _atom_site_fract_y
 _atom_site_fract_z
 _atom_site_occupancy
  Si  Si0  24  0.07800000  0.29070000  0.25510000  1
  Si  Si1  24  0.07970000  0.46890000  0.42750000  1
  Si  Si2  24  0.08080000  0.47030000  0.20250000  1
  Si  Si3  24  0.11820000  0.37470000  0.13160000  1
  Si  Si4  24  0.15100000  0.44080000  0.31440000  1
  Si  Si5  12  0.07910000  0.29650000  0.00000000  1
  O  O6  24  0.07640000  0.31420000  0.18340000  1
  O  O7  24  0.09080000  0.34350000  0.06200000  1
  O  O8  24  0.10420000  0.43880000  0.14480000  1
  O  O9  24  0.10670000  0.35770000  0.30120000  1
  O  O10  24  0.13000000  0.48100000  0.26280000  1
  O  O11  24  0.13250000  0.45630000  0.38410000  1
  O  O12  12  0.00000000  0.23240000  0.27640000  1
  O  O13  12  0.00000000  0.41680000  0.22010000  1
  O  O14  12  0.00000000  0.41850000  0.40460000  1
  O  O15  12  0.08750000  0.45160000  0.50000000  1
  O  O16  12  0.08970000  0.54485000  0.18220000  1
  O  O17  12  0.09920000  0.54960000  0.42170000  1
  O  O18  12  0.12895000  0.25790000  0.25960000  1
  O  O19  12  0.20095000  0.40190000  0.13690000  1
  O  O20  12  0.23360000  0.76640000  0.30970000  1
  O  O21  6  0.00000000  0.23100000  0.00000000  1
  O  O22  6  0.13430000  0.26860000  0.00000000  1
