# generated using pymatgen
data_SiO2
_symmetry_space_group_name_H-M   'P 1'
_cell_length_a   17.21499986
_cell_length_b   17.21499986
_cell_length_c   28.08200000
_cell_angle_alpha   90.00000000
_cell_angle_beta   90.00000000
_cell_angle_gamma   120.00000000
_symmetry_Int_Tables_number   1
_chemical_formula_structural   SiO2
_chemical_formula_sum   'Si96 O192'
_cell_volume   7207.30189212
_cell_formula_units_Z   96
loop_
 _symmetry_equiv_pos_site_id
 _symmetry_equiv_pos_as_xyz
  1  'x, y, z'
loop_
 _atom_site_type_symbol
 _atom_site_label
 _atom_site_symmetry_multiplicity
 _atom_site_fract_x
 _atom_site_fract_y
 _atom_site_fract_z
 _atom_site_occupancy
  Si  Si0  1  0.03660000  0.42960000  0.10750000  1.0
  Si  Si1  1  0.96340000  0.57040000  0.89250000  1.0
  Si  Si2  1  0.60700000  0.03660000  0.60750000  1.0
  Si  Si3  1  0.39300000  0.96340000  0.39250000  1.0
  Si  Si4  1  0.57040000  0.60700000  0.10750000  1.0
  Si  Si5  1  0.42960000  0.39300000  0.89250000  1.0
  Si  Si6  1  0.96340000  0.57040000  0.60750000  1.0
  Si  Si7  1  0.03660000  0.42960000  0.39250000  1.0
  Si  Si8  1  0.39300000  0.96340000  0.10750000  1.0
  Si  Si9  1  0.60700000  0.03660000  0.89250000  1.0
  Si  Si10  1  0.42960000  0.39300000  0.60750000  1.0
  Si  Si11  1  0.57040000  0.60700000  0.39250000  1.0
  Si  Si12  1  0.57040000  0.96340000  0.39250000  1.0
  Si  Si13  1  0.42960000  0.03660000  0.60750000  1.0
  Si  Si14  1  0.96340000  0.39300000  0.89250000  1.0
  Si  Si15  1  0.03660000  0.60700000  0.10750000  1.0
  Si  Si16  1  0.39300000  0.42960000  0.39250000  1.0
  Si  Si17  1  0.60700000  0.57040000  0.60750000  1.0
  Si  Si18  1  0.42960000  0.03660000  0.89250000  1.0
  Si  Si19  1  0.57040000  0.96340000  0.10750000  1.0
  Si  Si20  1  0.03660000  0.60700000  0.39250000  1.0
  Si  Si21  1  0.96340000  0.39300000  0.60750000  1.0
  Si  Si22  1  0.60700000  0.57040000  0.89250000  1.0
  Si  Si23  1  0.39300000  0.42960000  0.10750000  1.0
  Si  Si24  1  0.09640000  0.37010000  0.01790000  1.0
  Si  Si25  1  0.90360000  0.62990000  0.98210000  1.0
  Si  Si26  1  0.72630000  0.09640000  0.51790000  1.0
  Si  Si27  1  0.27370000  0.90360000  0.48210000  1.0
  Si  Si28  1  0.62990000  0.72630000  0.01790000  1.0
  Si  Si29  1  0.37010000  0.27370000  0.98210000  1.0
  Si  Si30  1  0.90360000  0.62990000  0.51790000  1.0
  Si  Si31  1  0.09640000  0.37010000  0.48210000  1.0
  Si  Si32  1  0.27370000  0.90360000  0.01790000  1.0
  Si  Si33  1  0.72630000  0.09640000  0.98210000  1.0
  Si  Si34  1  0.37010000  0.27370000  0.51790000  1.0
  Si  Si35  1  0.62990000  0.72630000  0.48210000  1.0
  Si  Si36  1  0.62990000  0.90360000  0.48210000  1.0
  Si  Si37  1  0.37010000  0.09640000  0.51790000  1.0
  Si  Si38  1  0.90360000  0.27370000  0.98210000  1.0
  Si  Si39  1  0.09640000  0.72630000  0.01790000  1.0
  Si  Si40  1  0.27370000  0.37010000  0.48210000  1.0
  Si  Si41  1  0.72630000  0.62990000  0.51790000  1.0
  Si  Si42  1  0.37010000  0.09640000  0.98210000  1.0
  Si  Si43  1  0.62990000  0.90360000  0.01790000  1.0
  Si  Si44  1  0.09640000  0.72630000  0.48210000  1.0
  Si  Si45  1  0.90360000  0.27370000  0.51790000  1.0
  Si  Si46  1  0.72630000  0.62990000  0.98210000  1.0
  Si  Si47  1  0.27370000  0.37010000  0.01790000  1.0
  Si  Si48  1  0.15500000  0.48850000  0.19570000  1.0
  Si  Si49  1  0.84500000  0.51150000  0.80430000  1.0
  Si  Si50  1  0.66650000  0.15500000  0.69570000  1.0
  Si  Si51  1  0.33350000  0.84500000  0.30430000  1.0
  Si  Si52  1  0.51150000  0.66650000  0.19570000  1.0
  Si  Si53  1  0.48850000  0.33350000  0.80430000  1.0
  Si  Si54  1  0.84500000  0.51150000  0.69570000  1.0
  Si  Si55  1  0.15500000  0.48850000  0.30430000  1.0
  Si  Si56  1  0.33350000  0.84500000  0.19570000  1.0
  Si  Si57  1  0.66650000  0.15500000  0.80430000  1.0
  Si  Si58  1  0.48850000  0.33350000  0.69570000  1.0
  Si  Si59  1  0.51150000  0.66650000  0.30430000  1.0
  Si  Si60  1  0.51150000  0.84500000  0.30430000  1.0
  Si  Si61  1  0.48850000  0.15500000  0.69570000  1.0
  Si  Si62  1  0.84500000  0.33350000  0.80430000  1.0
  Si  Si63  1  0.15500000  0.66650000  0.19570000  1.0
  Si  Si64  1  0.33350000  0.48850000  0.30430000  1.0
  Si  Si65  1  0.66650000  0.51150000  0.69570000  1.0
  Si  Si66  1  0.48850000  0.15500000  0.80430000  1.0
  Si  Si67  1  0.51150000  0.84500000  0.19570000  1.0
  Si  Si68  1  0.15500000  0.66650000  0.30430000  1.0
  Si  Si69  1  0.84500000  0.33350000  0.69570000  1.0
  Si  Si70  1  0.66650000  0.51150000  0.80430000  1.0
  Si  Si71  1  0.33350000  0.48850000  0.19570000  1.0
  Si  Si72  1  0.15560000  0.48840000  0.57080000  1.0
  Si  Si73  1  0.84440000  0.51160000  0.42920000  1.0
  Si  Si74  1  0.66720000  0.15560000  0.07080000  1.0
  Si  Si75  1  0.33280000  0.84440000  0.92920000  1.0
  Si  Si76  1  0.51160000  0.66720000  0.57080000  1.0
  Si  Si77  1  0.48840000  0.33280000  0.42920000  1.0
  Si  Si78  1  0.84440000  0.51160000  0.07080000  1.0
  Si  Si79  1  0.15560000  0.48840000  0.92920000  1.0
  Si  Si80  1  0.33280000  0.84440000  0.57080000  1.0
  Si  Si81  1  0.66720000  0.15560000  0.42920000  1.0
  Si  Si82  1  0.48840000  0.33280000  0.07080000  1.0
  Si  Si83  1  0.51160000  0.66720000  0.92920000  1.0
  Si  Si84  1  0.51160000  0.84440000  0.92920000  1.0
  Si  Si85  1  0.48840000  0.15560000  0.07080000  1.0
  Si  Si86  1  0.84440000  0.33280000  0.42920000  1.0
  Si  Si87  1  0.15560000  0.66720000  0.57080000  1.0
  Si  Si88  1  0.33280000  0.48840000  0.92920000  1.0
  Si  Si89  1  0.66720000  0.51160000  0.07080000  1.0
  Si  Si90  1  0.48840000  0.15560000  0.42920000  1.0
  Si  Si91  1  0.51160000  0.84440000  0.57080000  1.0
  Si  Si92  1  0.15560000  0.66720000  0.92920000  1.0
  Si  Si93  1  0.84440000  0.33280000  0.07080000  1.0
  Si  Si94  1  0.66720000  0.51160000  0.42920000  1.0
  Si  Si95  1  0.33280000  0.48840000  0.57080000  1.0
  O  O96  1  0.06970000  0.43070000  0.60440000  1.0
  O  O97  1  0.93030000  0.56930000  0.39560000  1.0
  O  O98  1  0.63900000  0.06970000  0.10440000  1.0
  O  O99  1  0.36100000  0.93030000  0.89560000  1.0
  O  O100  1  0.56930000  0.63900000  0.60440000  1.0
  O  O101  1  0.43070000  0.36100000  0.39560000  1.0
  O  O102  1  0.93030000  0.56930000  0.10440000  1.0
  O  O103  1  0.06970000  0.43070000  0.89560000  1.0
  O  O104  1  0.36100000  0.93030000  0.60440000  1.0
  O  O105  1  0.63900000  0.06970000  0.39560000  1.0
  O  O106  1  0.43070000  0.36100000  0.10440000  1.0
  O  O107  1  0.56930000  0.63900000  0.89560000  1.0
  O  O108  1  0.56930000  0.93030000  0.89560000  1.0
  O  O109  1  0.43070000  0.06970000  0.10440000  1.0
  O  O110  1  0.93030000  0.36100000  0.39560000  1.0
  O  O111  1  0.06970000  0.63900000  0.60440000  1.0
  O  O112  1  0.36100000  0.43070000  0.89560000  1.0
  O  O113  1  0.63900000  0.56930000  0.10440000  1.0
  O  O114  1  0.43070000  0.06970000  0.39560000  1.0
  O  O115  1  0.56930000  0.93030000  0.60440000  1.0
  O  O116  1  0.06970000  0.63900000  0.89560000  1.0
  O  O117  1  0.93030000  0.36100000  0.10440000  1.0
  O  O118  1  0.63900000  0.56930000  0.39560000  1.0
  O  O119  1  0.36100000  0.43070000  0.60440000  1.0
  O  O120  1  0.07060000  0.43100000  0.16110000  1.0
  O  O121  1  0.92940000  0.56900000  0.83890000  1.0
  O  O122  1  0.63960000  0.07060000  0.66110000  1.0
  O  O123  1  0.36040000  0.92940000  0.33890000  1.0
  O  O124  1  0.56900000  0.63960000  0.16110000  1.0
  O  O125  1  0.43100000  0.36040000  0.83890000  1.0
  O  O126  1  0.92940000  0.56900000  0.66110000  1.0
  O  O127  1  0.07060000  0.43100000  0.33890000  1.0
  O  O128  1  0.36040000  0.92940000  0.16110000  1.0
  O  O129  1  0.63960000  0.07060000  0.83890000  1.0
  O  O130  1  0.43100000  0.36040000  0.66110000  1.0
  O  O131  1  0.56900000  0.63960000  0.33890000  1.0
  O  O132  1  0.56900000  0.92940000  0.33890000  1.0
  O  O133  1  0.43100000  0.07060000  0.66110000  1.0
  O  O134  1  0.92940000  0.36040000  0.83890000  1.0
  O  O135  1  0.07060000  0.63960000  0.16110000  1.0
  O  O136  1  0.36040000  0.43100000  0.33890000  1.0
  O  O137  1  0.63960000  0.56900000  0.66110000  1.0
  O  O138  1  0.43100000  0.07060000  0.83890000  1.0
  O  O139  1  0.56900000  0.92940000  0.16110000  1.0
  O  O140  1  0.07060000  0.63960000  0.33890000  1.0
  O  O141  1  0.92940000  0.36040000  0.66110000  1.0
  O  O142  1  0.63960000  0.56900000  0.83890000  1.0
  O  O143  1  0.36040000  0.43100000  0.16110000  1.0
  O  O144  1  0.08820000  0.39780000  0.07160000  1.0
  O  O145  1  0.91180000  0.60220000  0.92840000  1.0
  O  O146  1  0.69040000  0.08820000  0.57160000  1.0
  O  O147  1  0.30960000  0.91180000  0.42840000  1.0
  O  O148  1  0.60220000  0.69040000  0.07160000  1.0
  O  O149  1  0.39780000  0.30960000  0.92840000  1.0
  O  O150  1  0.91180000  0.60220000  0.57160000  1.0
  O  O151  1  0.08820000  0.39780000  0.42840000  1.0
  O  O152  1  0.30960000  0.91180000  0.07160000  1.0
  O  O153  1  0.69040000  0.08820000  0.92840000  1.0
  O  O154  1  0.39780000  0.30960000  0.57160000  1.0
  O  O155  1  0.60220000  0.69040000  0.42840000  1.0
  O  O156  1  0.60220000  0.91180000  0.42840000  1.0
  O  O157  1  0.39780000  0.08820000  0.57160000  1.0
  O  O158  1  0.91180000  0.30960000  0.92840000  1.0
  O  O159  1  0.08820000  0.69040000  0.07160000  1.0
  O  O160  1  0.30960000  0.39780000  0.42840000  1.0
  O  O161  1  0.69040000  0.60220000  0.57160000  1.0
  O  O162  1  0.39780000  0.08820000  0.92840000  1.0
  O  O163  1  0.60220000  0.91180000  0.07160000  1.0
  O  O164  1  0.08820000  0.69040000  0.42840000  1.0
  O  O165  1  0.91180000  0.30960000  0.57160000  1.0
  O  O166  1  0.69040000  0.60220000  0.92840000  1.0
  O  O167  1  0.30960000  0.39780000  0.07160000  1.0
  O  O168  1  0.13000000  0.45600000  0.51640000  1.0
  O  O169  1  0.87000000  0.54400000  0.48360000  1.0
  O  O170  1  0.67400000  0.13000000  0.01640000  1.0
  O  O171  1  0.32600000  0.87000000  0.98360000  1.0
  O  O172  1  0.54400000  0.67400000  0.51640000  1.0
  O  O173  1  0.45600000  0.32600000  0.48360000  1.0
  O  O174  1  0.87000000  0.54400000  0.01640000  1.0
  O  O175  1  0.13000000  0.45600000  0.98360000  1.0
  O  O176  1  0.32600000  0.87000000  0.51640000  1.0
  O  O177  1  0.67400000  0.13000000  0.48360000  1.0
  O  O178  1  0.45600000  0.32600000  0.01640000  1.0
  O  O179  1  0.54400000  0.67400000  0.98360000  1.0
  O  O180  1  0.54400000  0.87000000  0.98360000  1.0
  O  O181  1  0.45600000  0.13000000  0.01640000  1.0
  O  O182  1  0.87000000  0.32600000  0.48360000  1.0
  O  O183  1  0.13000000  0.67400000  0.51640000  1.0
  O  O184  1  0.32600000  0.45600000  0.98360000  1.0
  O  O185  1  0.67400000  0.54400000  0.01640000  1.0
  O  O186  1  0.45600000  0.13000000  0.48360000  1.0
  O  O187  1  0.54400000  0.87000000  0.51640000  1.0
  O  O188  1  0.13000000  0.67400000  0.98360000  1.0
  O  O189  1  0.87000000  0.32600000  0.01640000  1.0
  O  O190  1  0.67400000  0.54400000  0.48360000  1.0
  O  O191  1  0.32600000  0.45600000  0.51640000  1.0
  O  O192  1  0.00000000  0.29140000  0.00000000  1.0
  O  O193  1  0.00000000  0.70860000  0.00000000  1.0
  O  O194  1  0.70860000  0.00000000  0.50000000  1.0
  O  O195  1  0.29140000  0.00000000  0.50000000  1.0
  O  O196  1  0.70860000  0.70860000  0.00000000  1.0
  O  O197  1  0.29140000  0.29140000  0.00000000  1.0
  O  O198  1  0.00000000  0.70860000  0.50000000  1.0
  O  O199  1  0.00000000  0.29140000  0.50000000  1.0
  O  O200  1  0.29140000  0.00000000  0.00000000  1.0
  O  O201  1  0.70860000  0.00000000  0.00000000  1.0
  O  O202  1  0.29140000  0.29140000  0.50000000  1.0
  O  O203  1  0.70860000  0.70860000  0.50000000  1.0
  O  O204  1  0.05740000  0.52870000  0.09310000  1.0
  O  O205  1  0.94260000  0.47130000  0.90690000  1.0
  O  O206  1  0.52870000  0.05740000  0.59310000  1.0
  O  O207  1  0.47130000  0.94260000  0.40690000  1.0
  O  O208  1  0.47130000  0.52870000  0.09310000  1.0
  O  O209  1  0.52870000  0.47130000  0.90690000  1.0
  O  O210  1  0.94260000  0.47130000  0.59310000  1.0
  O  O211  1  0.05740000  0.52870000  0.40690000  1.0
  O  O212  1  0.47130000  0.94260000  0.09310000  1.0
  O  O213  1  0.52870000  0.05740000  0.90690000  1.0
  O  O214  1  0.52870000  0.47130000  0.59310000  1.0
  O  O215  1  0.47130000  0.52870000  0.40690000  1.0
  O  O216  1  0.12640000  0.45760000  0.25000000  1.0
  O  O217  1  0.87360000  0.54240000  0.75000000  1.0
  O  O218  1  0.66880000  0.12640000  0.75000000  1.0
  O  O219  1  0.33120000  0.87360000  0.25000000  1.0
  O  O220  1  0.54240000  0.66880000  0.25000000  1.0
  O  O221  1  0.45760000  0.33120000  0.75000000  1.0
  O  O222  1  0.54240000  0.87360000  0.25000000  1.0
  O  O223  1  0.45760000  0.12640000  0.75000000  1.0
  O  O224  1  0.87360000  0.33120000  0.75000000  1.0
  O  O225  1  0.12640000  0.66880000  0.25000000  1.0
  O  O226  1  0.33120000  0.45760000  0.25000000  1.0
  O  O227  1  0.66880000  0.54240000  0.75000000  1.0
  O  O228  1  0.16780000  0.33560000  0.01620000  1.0
  O  O229  1  0.83220000  0.66440000  0.98380000  1.0
  O  O230  1  0.83220000  0.16780000  0.51620000  1.0
  O  O231  1  0.16780000  0.83220000  0.48380000  1.0
  O  O232  1  0.66440000  0.83220000  0.01620000  1.0
  O  O233  1  0.33560000  0.16780000  0.98380000  1.0
  O  O234  1  0.83220000  0.66440000  0.51620000  1.0
  O  O235  1  0.16780000  0.33560000  0.48380000  1.0
  O  O236  1  0.16780000  0.83220000  0.01620000  1.0
  O  O237  1  0.83220000  0.16780000  0.98380000  1.0
  O  O238  1  0.33560000  0.16780000  0.51620000  1.0
  O  O239  1  0.66440000  0.83220000  0.48380000  1.0
  O  O240  1  0.18610000  0.59305000  0.57490000  1.0
  O  O241  1  0.81390000  0.40695000  0.42510000  1.0
  O  O242  1  0.59305000  0.18610000  0.07490000  1.0
  O  O243  1  0.40695000  0.81390000  0.92510000  1.0
  O  O244  1  0.40695000  0.59305000  0.57490000  1.0
  O  O245  1  0.59305000  0.40695000  0.42510000  1.0
  O  O246  1  0.81390000  0.40695000  0.07490000  1.0
  O  O247  1  0.18610000  0.59305000  0.92510000  1.0
  O  O248  1  0.40695000  0.81390000  0.57490000  1.0
  O  O249  1  0.59305000  0.18610000  0.42510000  1.0
  O  O250  1  0.59305000  0.40695000  0.07490000  1.0
  O  O251  1  0.40695000  0.59305000  0.92510000  1.0
  O  O252  1  0.18680000  0.59340000  0.19050000  1.0
  O  O253  1  0.81320000  0.40660000  0.80950000  1.0
  O  O254  1  0.59340000  0.18680000  0.69050000  1.0
  O  O255  1  0.40660000  0.81320000  0.30950000  1.0
  O  O256  1  0.40660000  0.59340000  0.19050000  1.0
  O  O257  1  0.59340000  0.40660000  0.80950000  1.0
  O  O258  1  0.81320000  0.40660000  0.69050000  1.0
  O  O259  1  0.18680000  0.59340000  0.30950000  1.0
  O  O260  1  0.40660000  0.81320000  0.19050000  1.0
  O  O261  1  0.59340000  0.18680000  0.80950000  1.0
  O  O262  1  0.59340000  0.40660000  0.69050000  1.0
  O  O263  1  0.40660000  0.59340000  0.30950000  1.0
  O  O264  1  0.23615000  0.47230000  0.18100000  1.0
  O  O265  1  0.76385000  0.52770000  0.81900000  1.0
  O  O266  1  0.76385000  0.23615000  0.68100000  1.0
  O  O267  1  0.23615000  0.76385000  0.31900000  1.0
  O  O268  1  0.52770000  0.76385000  0.18100000  1.0
  O  O269  1  0.47230000  0.23615000  0.81900000  1.0
  O  O270  1  0.76385000  0.52770000  0.68100000  1.0
  O  O271  1  0.23615000  0.47230000  0.31900000  1.0
  O  O272  1  0.23615000  0.76385000  0.18100000  1.0
  O  O273  1  0.76385000  0.23615000  0.81900000  1.0
  O  O274  1  0.47230000  0.23615000  0.68100000  1.0
  O  O275  1  0.52770000  0.76385000  0.31900000  1.0
  O  O276  1  0.23680000  0.47360000  0.58760000  1.0
  O  O277  1  0.76320000  0.52640000  0.41240000  1.0
  O  O278  1  0.76320000  0.23680000  0.08760000  1.0
  O  O279  1  0.23680000  0.76320000  0.91240000  1.0
  O  O280  1  0.52640000  0.76320000  0.58760000  1.0
  O  O281  1  0.47360000  0.23680000  0.41240000  1.0
  O  O282  1  0.76320000  0.52640000  0.08760000  1.0
  O  O283  1  0.23680000  0.47360000  0.91240000  1.0
  O  O284  1  0.23680000  0.76320000  0.58760000  1.0
  O  O285  1  0.76320000  0.23680000  0.41240000  1.0
  O  O286  1  0.47360000  0.23680000  0.08760000  1.0
  O  O287  1  0.52640000  0.76320000  0.91240000  1.0
