# generated using pymatgen
data_Si35O73
_symmetry_space_group_name_H-M   P31c
_cell_length_a   19.80110016
_cell_length_b   19.80110016
_cell_length_c   14.18780000
_cell_angle_alpha   90.00000000
_cell_angle_beta   90.00000000
_cell_angle_gamma   120.00000000
_symmetry_Int_Tables_number   159
_chemical_formula_structural   Si35O73
_chemical_formula_sum   'Si70 O146'
_cell_volume   4817.52892338
_cell_formula_units_Z   2
loop_
 _symmetry_equiv_pos_site_id
 _symmetry_equiv_pos_as_xyz
  1  'x, y, z'
  2  '-y, x-y, z'
  3  '-x+y, -x, z'
  4  'y, x, z+1/2'
  5  'x-y, -y, z+1/2'
  6  '-x, -x+y, z+1/2'
loop_
 _atom_site_type_symbol
 _atom_site_label
 _atom_site_symmetry_multiplicity
 _atom_site_fract_x
 _atom_site_fract_y
 _atom_site_fract_z
 _atom_site_occupancy
  Si  Si0  6  0.01139000  0.73147000  0.25088000  1
  Si  Si1  6  0.01835000  0.69948000  0.54152000  1
  Si  Si2  6  0.06503000  0.55097000  0.28803000  1
  Si  Si3  6  0.07156000  0.50238000  0.49469000  1
  Si  Si4  6  0.08747000  0.64694000  0.78092000  1
  Si  Si5  6  0.08889000  0.49887000  0.09500000  1
  Si  Si6  6  0.11566000  0.64947000  0.99164000  1
  Si  Si7  6  0.15080000  0.67341000  0.58569000  1
  Si  Si8  6  0.16587000  0.73046000  0.29600000  1
  Si  Si9  6  0.22537000  0.50840000  0.45811000  1
  Si  Si10  6  0.23250000  0.48503000  0.10091000  1
  Si  Si11  2  0.33333333  0.66666667  0.14008000  1
  Si  Si12  2  0.33333333  0.66666667  0.36675000  1
  O  O13  6  0.00037000  0.80313000  0.78370000  1
  O  O14  6  0.00333000  0.44214000  0.05263000  1
  O  O15  6  0.01176000  0.56472000  0.75517000  1
  O  O16  6  0.01326000  0.75167000  0.45787000  1
  O  O17  6  0.01498000  0.72999000  0.13758000  1
  O  O18  6  0.03187000  0.64042000  0.01410000  1
  O  O19  6  0.04770000  0.50543000  0.38694000  1
  O  O20  6  0.06117000  0.71174000  0.78731000  1
  O  O21  6  0.08480000  0.50600000  0.20770000  1
  O  O22  6  0.09132000  0.74257000  0.29465000  1
  O  O23  6  0.10445000  0.58670000  0.54270000  1
  O  O24  6  0.10759000  0.72084000  0.55582000  1
  O  O25  6  0.12301000  0.63993000  0.88004000  1
  O  O26  6  0.12479000  0.58397000  0.04804000  1
  O  O27  6  0.13676000  0.63864000  0.29942000  1
  O  O28  6  0.13812000  0.47825000  0.49561000  1
  O  O29  6  0.14555000  0.46438000  0.07213000  1
  O  O30  6  0.15159000  0.66941000  0.69906000  1
  O  O31  6  0.18320000  0.73469000  0.02434000  1
  O  O32  6  0.21769000  0.76863000  0.20297000  1
  O  O33  6  0.21882000  0.77300000  0.38705000  1
  O  O34  6  0.23883000  0.71839000  0.54624000  1
  O  O35  6  0.25633000  0.59030000  0.40440000  1
  O  O36  6  0.28865000  0.57819000  0.10233000  1
  O  O37  2  0.33333333  0.66666667  0.25341000  1
