# generated using pymatgen
data_Si35O73
_symmetry_space_group_name_H-M   'P 1'
_cell_length_a   19.80110016
_cell_length_b   19.80110016
_cell_length_c   14.18780000
_cell_angle_alpha   90.00000000
_cell_angle_beta   90.00000000
_cell_angle_gamma   120.00000000
_symmetry_Int_Tables_number   1
_chemical_formula_structural   Si35O73
_chemical_formula_sum   'Si70 O146'
_cell_volume   4817.52892178
_cell_formula_units_Z   2
loop_
 _symmetry_equiv_pos_site_id
 _symmetry_equiv_pos_as_xyz
  1  'x, y, z'
loop_
 _atom_site_type_symbol
 _atom_site_label
 _atom_site_symmetry_multiplicity
 _atom_site_fract_x
 _atom_site_fract_y
 _atom_site_fract_z
 _atom_site_occupancy
  Si  Si0  1  0.01139000  0.73147000  0.25088000  1.0
  Si  Si1  1  0.26853000  0.27992000  0.25088000  1.0
  Si  Si2  1  0.72008000  0.98861000  0.25088000  1.0
  Si  Si3  1  0.73147000  0.01139000  0.75088000  1.0
  Si  Si4  1  0.27992000  0.26853000  0.75088000  1.0
  Si  Si5  1  0.98861000  0.72008000  0.75088000  1.0
  Si  Si6  1  0.01835000  0.69948000  0.54152000  1.0
  Si  Si7  1  0.30052000  0.31887000  0.54152000  1.0
  Si  Si8  1  0.68113000  0.98165000  0.54152000  1.0
  Si  Si9  1  0.69948000  0.01835000  0.04152000  1.0
  Si  Si10  1  0.31887000  0.30052000  0.04152000  1.0
  Si  Si11  1  0.98165000  0.68113000  0.04152000  1.0
  Si  Si12  1  0.06503000  0.55097000  0.28803000  1.0
  Si  Si13  1  0.44903000  0.51406000  0.28803000  1.0
  Si  Si14  1  0.48594000  0.93497000  0.28803000  1.0
  Si  Si15  1  0.55097000  0.06503000  0.78803000  1.0
  Si  Si16  1  0.51406000  0.44903000  0.78803000  1.0
  Si  Si17  1  0.93497000  0.48594000  0.78803000  1.0
  Si  Si18  1  0.07156000  0.50238000  0.49469000  1.0
  Si  Si19  1  0.49762000  0.56918000  0.49469000  1.0
  Si  Si20  1  0.43082000  0.92844000  0.49469000  1.0
  Si  Si21  1  0.50238000  0.07156000  0.99469000  1.0
  Si  Si22  1  0.56918000  0.49762000  0.99469000  1.0
  Si  Si23  1  0.92844000  0.43082000  0.99469000  1.0
  Si  Si24  1  0.08747000  0.64694000  0.78092000  1.0
  Si  Si25  1  0.35306000  0.44053000  0.78092000  1.0
  Si  Si26  1  0.55947000  0.91253000  0.78092000  1.0
  Si  Si27  1  0.64694000  0.08747000  0.28092000  1.0
  Si  Si28  1  0.44053000  0.35306000  0.28092000  1.0
  Si  Si29  1  0.91253000  0.55947000  0.28092000  1.0
  Si  Si30  1  0.08889000  0.49887000  0.09500000  1.0
  Si  Si31  1  0.50113000  0.59002000  0.09500000  1.0
  Si  Si32  1  0.40998000  0.91111000  0.09500000  1.0
  Si  Si33  1  0.49887000  0.08889000  0.59500000  1.0
  Si  Si34  1  0.59002000  0.50113000  0.59500000  1.0
  Si  Si35  1  0.91111000  0.40998000  0.59500000  1.0
  Si  Si36  1  0.11566000  0.64947000  0.99164000  1.0
  Si  Si37  1  0.35053000  0.46619000  0.99164000  1.0
  Si  Si38  1  0.53381000  0.88434000  0.99164000  1.0
  Si  Si39  1  0.64947000  0.11566000  0.49164000  1.0
  Si  Si40  1  0.46619000  0.35053000  0.49164000  1.0
  Si  Si41  1  0.88434000  0.53381000  0.49164000  1.0
  Si  Si42  1  0.15080000  0.67341000  0.58569000  1.0
  Si  Si43  1  0.32659000  0.47739000  0.58569000  1.0
  Si  Si44  1  0.52261000  0.84920000  0.58569000  1.0
  Si  Si45  1  0.67341000  0.15080000  0.08569000  1.0
  Si  Si46  1  0.47739000  0.32659000  0.08569000  1.0
  Si  Si47  1  0.84920000  0.52261000  0.08569000  1.0
  Si  Si48  1  0.16587000  0.73046000  0.29600000  1.0
  Si  Si49  1  0.26954000  0.43541000  0.29600000  1.0
  Si  Si50  1  0.56459000  0.83413000  0.29600000  1.0
  Si  Si51  1  0.73046000  0.16587000  0.79600000  1.0
  Si  Si52  1  0.43541000  0.26954000  0.79600000  1.0
  Si  Si53  1  0.83413000  0.56459000  0.79600000  1.0
  Si  Si54  1  0.22537000  0.50840000  0.45811000  1.0
  Si  Si55  1  0.49160000  0.71697000  0.45811000  1.0
  Si  Si56  1  0.28303000  0.77463000  0.45811000  1.0
  Si  Si57  1  0.50840000  0.22537000  0.95811000  1.0
  Si  Si58  1  0.71697000  0.49160000  0.95811000  1.0
  Si  Si59  1  0.77463000  0.28303000  0.95811000  1.0
  Si  Si60  1  0.23250000  0.48503000  0.10091000  1.0
  Si  Si61  1  0.51497000  0.74747000  0.10091000  1.0
  Si  Si62  1  0.25253000  0.76750000  0.10091000  1.0
  Si  Si63  1  0.48503000  0.23250000  0.60091000  1.0
  Si  Si64  1  0.74747000  0.51497000  0.60091000  1.0
  Si  Si65  1  0.76750000  0.25253000  0.60091000  1.0
  Si  Si66  1  0.33333333  0.66666667  0.14008000  1.0
  Si  Si67  1  0.66666667  0.33333333  0.64008000  1.0
  Si  Si68  1  0.33333333  0.66666667  0.36675000  1.0
  Si  Si69  1  0.66666667  0.33333333  0.86675000  1.0
  O  O70  1  0.00037000  0.80313000  0.78370000  1.0
  O  O71  1  0.19687000  0.19724000  0.78370000  1.0
  O  O72  1  0.80276000  0.99963000  0.78370000  1.0
  O  O73  1  0.80313000  0.00037000  0.28370000  1.0
  O  O74  1  0.19724000  0.19687000  0.28370000  1.0
  O  O75  1  0.99963000  0.80276000  0.28370000  1.0
  O  O76  1  0.00333000  0.44214000  0.05263000  1.0
  O  O77  1  0.55786000  0.56119000  0.05263000  1.0
  O  O78  1  0.43881000  0.99667000  0.05263000  1.0
  O  O79  1  0.44214000  0.00333000  0.55263000  1.0
  O  O80  1  0.56119000  0.55786000  0.55263000  1.0
  O  O81  1  0.99667000  0.43881000  0.55263000  1.0
  O  O82  1  0.01176000  0.56472000  0.75517000  1.0
  O  O83  1  0.43528000  0.44704000  0.75517000  1.0
  O  O84  1  0.55296000  0.98824000  0.75517000  1.0
  O  O85  1  0.56472000  0.01176000  0.25517000  1.0
  O  O86  1  0.44704000  0.43528000  0.25517000  1.0
  O  O87  1  0.98824000  0.55296000  0.25517000  1.0
  O  O88  1  0.01326000  0.75167000  0.45787000  1.0
  O  O89  1  0.24833000  0.26159000  0.45787000  1.0
  O  O90  1  0.73841000  0.98674000  0.45787000  1.0
  O  O91  1  0.75167000  0.01326000  0.95787000  1.0
  O  O92  1  0.26159000  0.24833000  0.95787000  1.0
  O  O93  1  0.98674000  0.73841000  0.95787000  1.0
  O  O94  1  0.01498000  0.72999000  0.13758000  1.0
  O  O95  1  0.27001000  0.28499000  0.13758000  1.0
  O  O96  1  0.71501000  0.98502000  0.13758000  1.0
  O  O97  1  0.72999000  0.01498000  0.63758000  1.0
  O  O98  1  0.28499000  0.27001000  0.63758000  1.0
  O  O99  1  0.98502000  0.71501000  0.63758000  1.0
  O  O100  1  0.03187000  0.64042000  0.01410000  1.0
  O  O101  1  0.35958000  0.39145000  0.01410000  1.0
  O  O102  1  0.60855000  0.96813000  0.01410000  1.0
  O  O103  1  0.64042000  0.03187000  0.51410000  1.0
  O  O104  1  0.39145000  0.35958000  0.51410000  1.0
  O  O105  1  0.96813000  0.60855000  0.51410000  1.0
  O  O106  1  0.04770000  0.50543000  0.38694000  1.0
  O  O107  1  0.49457000  0.54227000  0.38694000  1.0
  O  O108  1  0.45773000  0.95230000  0.38694000  1.0
  O  O109  1  0.50543000  0.04770000  0.88694000  1.0
  O  O110  1  0.54227000  0.49457000  0.88694000  1.0
  O  O111  1  0.95230000  0.45773000  0.88694000  1.0
  O  O112  1  0.06117000  0.71174000  0.78731000  1.0
  O  O113  1  0.28826000  0.34943000  0.78731000  1.0
  O  O114  1  0.65057000  0.93883000  0.78731000  1.0
  O  O115  1  0.71174000  0.06117000  0.28731000  1.0
  O  O116  1  0.34943000  0.28826000  0.28731000  1.0
  O  O117  1  0.93883000  0.65057000  0.28731000  1.0
  O  O118  1  0.08480000  0.50600000  0.20770000  1.0
  O  O119  1  0.49400000  0.57880000  0.20770000  1.0
  O  O120  1  0.42120000  0.91520000  0.20770000  1.0
  O  O121  1  0.50600000  0.08480000  0.70770000  1.0
  O  O122  1  0.57880000  0.49400000  0.70770000  1.0
  O  O123  1  0.91520000  0.42120000  0.70770000  1.0
  O  O124  1  0.09132000  0.74257000  0.29465000  1.0
  O  O125  1  0.25743000  0.34875000  0.29465000  1.0
  O  O126  1  0.65125000  0.90868000  0.29465000  1.0
  O  O127  1  0.74257000  0.09132000  0.79465000  1.0
  O  O128  1  0.34875000  0.25743000  0.79465000  1.0
  O  O129  1  0.90868000  0.65125000  0.79465000  1.0
  O  O130  1  0.10445000  0.58670000  0.54270000  1.0
  O  O131  1  0.41330000  0.51775000  0.54270000  1.0
  O  O132  1  0.48225000  0.89555000  0.54270000  1.0
  O  O133  1  0.58670000  0.10445000  0.04270000  1.0
  O  O134  1  0.51775000  0.41330000  0.04270000  1.0
  O  O135  1  0.89555000  0.48225000  0.04270000  1.0
  O  O136  1  0.10759000  0.72084000  0.55582000  1.0
  O  O137  1  0.27916000  0.38675000  0.55582000  1.0
  O  O138  1  0.61325000  0.89241000  0.55582000  1.0
  O  O139  1  0.72084000  0.10759000  0.05582000  1.0
  O  O140  1  0.38675000  0.27916000  0.05582000  1.0
  O  O141  1  0.89241000  0.61325000  0.05582000  1.0
  O  O142  1  0.12301000  0.63993000  0.88004000  1.0
  O  O143  1  0.36007000  0.48308000  0.88004000  1.0
  O  O144  1  0.51692000  0.87699000  0.88004000  1.0
  O  O145  1  0.63993000  0.12301000  0.38004000  1.0
  O  O146  1  0.48308000  0.36007000  0.38004000  1.0
  O  O147  1  0.87699000  0.51692000  0.38004000  1.0
  O  O148  1  0.12479000  0.58397000  0.04804000  1.0
  O  O149  1  0.41603000  0.54082000  0.04804000  1.0
  O  O150  1  0.45918000  0.87521000  0.04804000  1.0
  O  O151  1  0.58397000  0.12479000  0.54804000  1.0
  O  O152  1  0.54082000  0.41603000  0.54804000  1.0
  O  O153  1  0.87521000  0.45918000  0.54804000  1.0
  O  O154  1  0.13676000  0.63864000  0.29942000  1.0
  O  O155  1  0.36136000  0.49812000  0.29942000  1.0
  O  O156  1  0.50188000  0.86324000  0.29942000  1.0
  O  O157  1  0.63864000  0.13676000  0.79942000  1.0
  O  O158  1  0.49812000  0.36136000  0.79942000  1.0
  O  O159  1  0.86324000  0.50188000  0.79942000  1.0
  O  O160  1  0.13812000  0.47825000  0.49561000  1.0
  O  O161  1  0.52175000  0.65987000  0.49561000  1.0
  O  O162  1  0.34013000  0.86188000  0.49561000  1.0
  O  O163  1  0.47825000  0.13812000  0.99561000  1.0
  O  O164  1  0.65987000  0.52175000  0.99561000  1.0
  O  O165  1  0.86188000  0.34013000  0.99561000  1.0
  O  O166  1  0.14555000  0.46438000  0.07213000  1.0
  O  O167  1  0.53562000  0.68117000  0.07213000  1.0
  O  O168  1  0.31883000  0.85445000  0.07213000  1.0
  O  O169  1  0.46438000  0.14555000  0.57213000  1.0
  O  O170  1  0.68117000  0.53562000  0.57213000  1.0
  O  O171  1  0.85445000  0.31883000  0.57213000  1.0
  O  O172  1  0.15159000  0.66941000  0.69906000  1.0
  O  O173  1  0.33059000  0.48218000  0.69906000  1.0
  O  O174  1  0.51782000  0.84841000  0.69906000  1.0
  O  O175  1  0.66941000  0.15159000  0.19906000  1.0
  O  O176  1  0.48218000  0.33059000  0.19906000  1.0
  O  O177  1  0.84841000  0.51782000  0.19906000  1.0
  O  O178  1  0.18320000  0.73469000  0.02434000  1.0
  O  O179  1  0.26531000  0.44851000  0.02434000  1.0
  O  O180  1  0.55149000  0.81680000  0.02434000  1.0
  O  O181  1  0.73469000  0.18320000  0.52434000  1.0
  O  O182  1  0.44851000  0.26531000  0.52434000  1.0
  O  O183  1  0.81680000  0.55149000  0.52434000  1.0
  O  O184  1  0.21769000  0.76863000  0.20297000  1.0
  O  O185  1  0.23137000  0.44906000  0.20297000  1.0
  O  O186  1  0.55094000  0.78231000  0.20297000  1.0
  O  O187  1  0.76863000  0.21769000  0.70297000  1.0
  O  O188  1  0.44906000  0.23137000  0.70297000  1.0
  O  O189  1  0.78231000  0.55094000  0.70297000  1.0
  O  O190  1  0.21882000  0.77300000  0.38705000  1.0
  O  O191  1  0.22700000  0.44582000  0.38705000  1.0
  O  O192  1  0.55418000  0.78118000  0.38705000  1.0
  O  O193  1  0.77300000  0.21882000  0.88705000  1.0
  O  O194  1  0.44582000  0.22700000  0.88705000  1.0
  O  O195  1  0.78118000  0.55418000  0.88705000  1.0
  O  O196  1  0.23883000  0.71839000  0.54624000  1.0
  O  O197  1  0.28161000  0.52044000  0.54624000  1.0
  O  O198  1  0.47956000  0.76117000  0.54624000  1.0
  O  O199  1  0.71839000  0.23883000  0.04624000  1.0
  O  O200  1  0.52044000  0.28161000  0.04624000  1.0
  O  O201  1  0.76117000  0.47956000  0.04624000  1.0
  O  O202  1  0.25633000  0.59030000  0.40440000  1.0
  O  O203  1  0.40970000  0.66603000  0.40440000  1.0
  O  O204  1  0.33397000  0.74367000  0.40440000  1.0
  O  O205  1  0.59030000  0.25633000  0.90440000  1.0
  O  O206  1  0.66603000  0.40970000  0.90440000  1.0
  O  O207  1  0.74367000  0.33397000  0.90440000  1.0
  O  O208  1  0.28865000  0.57819000  0.10233000  1.0
  O  O209  1  0.42181000  0.71046000  0.10233000  1.0
  O  O210  1  0.28954000  0.71135000  0.10233000  1.0
  O  O211  1  0.57819000  0.28865000  0.60233000  1.0
  O  O212  1  0.71046000  0.42181000  0.60233000  1.0
  O  O213  1  0.71135000  0.28954000  0.60233000  1.0
  O  O214  1  0.33333333  0.66666667  0.25341000  1.0
  O  O215  1  0.66666667  0.33333333  0.75341000  1.0
