# generated using pymatgen
data_SiO2
_symmetry_space_group_name_H-M   'P 1'
_cell_length_a   13.67199986
_cell_length_b   13.67199986
_cell_length_c   9.85000000
_cell_angle_alpha   90.00000000
_cell_angle_beta   90.00000000
_cell_angle_gamma   120.00000000
_symmetry_Int_Tables_number   1
_chemical_formula_structural   SiO2
_chemical_formula_sum   'Si24 O48'
_cell_volume   1594.52360460
_cell_formula_units_Z   24
loop_
 _symmetry_equiv_pos_site_id
 _symmetry_equiv_pos_as_xyz
  1  'x, y, z'
loop_
 _atom_site_type_symbol
 _atom_site_label
 _atom_site_symmetry_multiplicity
 _atom_site_fract_x
 _atom_site_fract_y
 _atom_site_fract_z
 _atom_site_occupancy
  Si  Si0  1  0.10640000  0.44030000  0.59240000  1.0
  Si  Si1  1  0.89360000  0.55970000  0.40760000  1.0
  Si  Si2  1  0.66610000  0.10640000  0.09240000  1.0
  Si  Si3  1  0.33390000  0.89360000  0.90760000  1.0
  Si  Si4  1  0.55970000  0.66610000  0.59240000  1.0
  Si  Si5  1  0.44030000  0.33390000  0.40760000  1.0
  Si  Si6  1  0.89360000  0.55970000  0.09240000  1.0
  Si  Si7  1  0.10640000  0.44030000  0.90760000  1.0
  Si  Si8  1  0.33390000  0.89360000  0.59240000  1.0
  Si  Si9  1  0.66610000  0.10640000  0.40760000  1.0
  Si  Si10  1  0.44030000  0.33390000  0.09240000  1.0
  Si  Si11  1  0.55970000  0.66610000  0.90760000  1.0
  Si  Si12  1  0.55970000  0.89360000  0.90760000  1.0
  Si  Si13  1  0.44030000  0.10640000  0.09240000  1.0
  Si  Si14  1  0.89360000  0.33390000  0.40760000  1.0
  Si  Si15  1  0.10640000  0.66610000  0.59240000  1.0
  Si  Si16  1  0.33390000  0.44030000  0.90760000  1.0
  Si  Si17  1  0.66610000  0.55970000  0.09240000  1.0
  Si  Si18  1  0.44030000  0.10640000  0.40760000  1.0
  Si  Si19  1  0.55970000  0.89360000  0.59240000  1.0
  Si  Si20  1  0.10640000  0.66610000  0.90760000  1.0
  Si  Si21  1  0.89360000  0.33390000  0.09240000  1.0
  Si  Si22  1  0.66610000  0.55970000  0.40760000  1.0
  Si  Si23  1  0.33390000  0.44030000  0.59240000  1.0
  O  O24  1  0.00000000  0.35650000  0.00000000  1.0
  O  O25  1  0.00000000  0.64350000  0.00000000  1.0
  O  O26  1  0.64350000  0.00000000  0.50000000  1.0
  O  O27  1  0.35650000  0.00000000  0.50000000  1.0
  O  O28  1  0.64350000  0.64350000  0.00000000  1.0
  O  O29  1  0.35650000  0.35650000  0.00000000  1.0
  O  O30  1  0.00000000  0.64350000  0.50000000  1.0
  O  O31  1  0.00000000  0.35650000  0.50000000  1.0
  O  O32  1  0.35650000  0.00000000  0.00000000  1.0
  O  O33  1  0.64350000  0.00000000  0.00000000  1.0
  O  O34  1  0.35650000  0.35650000  0.50000000  1.0
  O  O35  1  0.64350000  0.64350000  0.50000000  1.0
  O  O36  1  0.07520000  0.40940000  0.75000000  1.0
  O  O37  1  0.92480000  0.59060000  0.25000000  1.0
  O  O38  1  0.66580000  0.07520000  0.25000000  1.0
  O  O39  1  0.33420000  0.92480000  0.75000000  1.0
  O  O40  1  0.59060000  0.66580000  0.75000000  1.0
  O  O41  1  0.40940000  0.33420000  0.25000000  1.0
  O  O42  1  0.59060000  0.92480000  0.75000000  1.0
  O  O43  1  0.40940000  0.07520000  0.25000000  1.0
  O  O44  1  0.92480000  0.33420000  0.25000000  1.0
  O  O45  1  0.07520000  0.66580000  0.75000000  1.0
  O  O46  1  0.33420000  0.40940000  0.75000000  1.0
  O  O47  1  0.66580000  0.59060000  0.25000000  1.0
  O  O48  1  0.13750000  0.56875000  0.56560000  1.0
  O  O49  1  0.86250000  0.43125000  0.43440000  1.0
  O  O50  1  0.56875000  0.13750000  0.06560000  1.0
  O  O51  1  0.43125000  0.86250000  0.93440000  1.0
  O  O52  1  0.43125000  0.56875000  0.56560000  1.0
  O  O53  1  0.56875000  0.43125000  0.43440000  1.0
  O  O54  1  0.86250000  0.43125000  0.06560000  1.0
  O  O55  1  0.13750000  0.56875000  0.93440000  1.0
  O  O56  1  0.43125000  0.86250000  0.56560000  1.0
  O  O57  1  0.56875000  0.13750000  0.43440000  1.0
  O  O58  1  0.56875000  0.43125000  0.06560000  1.0
  O  O59  1  0.43125000  0.56875000  0.93440000  1.0
  O  O60  1  0.21295000  0.42590000  0.55360000  1.0
  O  O61  1  0.78705000  0.57410000  0.44640000  1.0
  O  O62  1  0.78705000  0.21295000  0.05360000  1.0
  O  O63  1  0.21295000  0.78705000  0.94640000  1.0
  O  O64  1  0.57410000  0.78705000  0.55360000  1.0
  O  O65  1  0.42590000  0.21295000  0.44640000  1.0
  O  O66  1  0.78705000  0.57410000  0.05360000  1.0
  O  O67  1  0.21295000  0.42590000  0.94640000  1.0
  O  O68  1  0.21295000  0.78705000  0.55360000  1.0
  O  O69  1  0.78705000  0.21295000  0.44640000  1.0
  O  O70  1  0.42590000  0.21295000  0.05360000  1.0
  O  O71  1  0.57410000  0.78705000  0.94640000  1.0
