# generated using pymatgen
data_SiO2
_symmetry_space_group_name_H-M   'P 1'
_cell_length_a   20.53600000
_cell_length_b   20.53600000
_cell_length_c   20.53600000
_cell_angle_alpha   90.00000000
_cell_angle_beta   90.00000000
_cell_angle_gamma   90.00000000
_symmetry_Int_Tables_number   1
_chemical_formula_structural   SiO2
_chemical_formula_sum   'Si168 O336'
_cell_volume   8660.59174900
_cell_formula_units_Z   168
loop_
 _symmetry_equiv_pos_site_id
 _symmetry_equiv_pos_as_xyz
  1  'x, y, z'
loop_
 _atom_site_type_symbol
 _atom_site_label
 _atom_site_symmetry_multiplicity
 _atom_site_fract_x
 _atom_site_fract_y
 _atom_site_fract_z
 _atom_site_occupancy
  Si  Si0  1  0.12100000  0.27076000  0.29420000  1.0
  Si  Si1  1  0.02076000  0.62900000  0.54420000  1.0
  Si  Si2  1  0.87900000  0.22924000  0.29420000  1.0
  Si  Si3  1  0.97924000  0.87100000  0.54420000  1.0
  Si  Si4  1  0.37900000  0.27076000  0.70580000  1.0
  Si  Si5  1  0.47924000  0.62900000  0.45580000  1.0
  Si  Si6  1  0.62100000  0.22924000  0.70580000  1.0
  Si  Si7  1  0.52076000  0.87100000  0.45580000  1.0
  Si  Si8  1  0.77076000  0.20580000  0.87900000  1.0
  Si  Si9  1  0.12900000  0.95580000  0.97924000  1.0
  Si  Si10  1  0.72924000  0.20580000  0.12100000  1.0
  Si  Si11  1  0.37100000  0.95580000  0.02076000  1.0
  Si  Si12  1  0.77076000  0.79420000  0.62100000  1.0
  Si  Si13  1  0.12900000  0.04420000  0.52076000  1.0
  Si  Si14  1  0.72924000  0.79420000  0.37900000  1.0
  Si  Si15  1  0.37100000  0.04420000  0.47924000  1.0
  Si  Si16  1  0.70580000  0.62100000  0.22924000  1.0
  Si  Si17  1  0.45580000  0.52076000  0.87100000  1.0
  Si  Si18  1  0.70580000  0.37900000  0.27076000  1.0
  Si  Si19  1  0.45580000  0.47924000  0.62900000  1.0
  Si  Si20  1  0.29420000  0.87900000  0.22924000  1.0
  Si  Si21  1  0.54420000  0.97924000  0.87100000  1.0
  Si  Si22  1  0.29420000  0.12100000  0.27076000  1.0
  Si  Si23  1  0.54420000  0.02076000  0.62900000  1.0
  Si  Si24  1  0.30681000  0.80075000  0.55115000  1.0
  Si  Si25  1  0.55075000  0.44319000  0.80115000  1.0
  Si  Si26  1  0.69319000  0.69925000  0.55115000  1.0
  Si  Si27  1  0.44925000  0.05681000  0.80115000  1.0
  Si  Si28  1  0.69319000  0.30075000  0.94885000  1.0
  Si  Si29  1  0.44925000  0.94319000  0.69885000  1.0
  Si  Si30  1  0.80681000  0.69925000  0.44885000  1.0
  Si  Si31  1  0.05075000  0.05681000  0.19885000  1.0
  Si  Si32  1  0.30075000  0.94885000  0.69319000  1.0
  Si  Si33  1  0.94319000  0.69885000  0.44925000  1.0
  Si  Si34  1  0.19925000  0.94885000  0.30681000  1.0
  Si  Si35  1  0.55681000  0.69885000  0.55075000  1.0
  Si  Si36  1  0.80075000  0.55115000  0.30681000  1.0
  Si  Si37  1  0.44319000  0.80115000  0.55075000  1.0
  Si  Si38  1  0.19925000  0.05115000  0.19319000  1.0
  Si  Si39  1  0.55681000  0.30115000  0.94925000  1.0
  Si  Si40  1  0.44885000  0.80681000  0.69925000  1.0
  Si  Si41  1  0.19885000  0.05075000  0.05681000  1.0
  Si  Si42  1  0.44885000  0.19319000  0.80075000  1.0
  Si  Si43  1  0.19885000  0.94925000  0.44319000  1.0
  Si  Si44  1  0.05115000  0.19319000  0.19925000  1.0
  Si  Si45  1  0.30115000  0.94925000  0.55681000  1.0
  Si  Si46  1  0.55115000  0.30681000  0.80075000  1.0
  Si  Si47  1  0.80115000  0.55075000  0.44319000  1.0
  Si  Si48  1  0.37241000  0.80849000  0.32924000  1.0
  Si  Si49  1  0.55849000  0.37759000  0.57924000  1.0
  Si  Si50  1  0.62759000  0.69151000  0.32924000  1.0
  Si  Si51  1  0.44151000  0.12241000  0.57924000  1.0
  Si  Si52  1  0.12759000  0.80849000  0.67076000  1.0
  Si  Si53  1  0.94151000  0.37759000  0.42076000  1.0
  Si  Si54  1  0.87241000  0.69151000  0.67076000  1.0
  Si  Si55  1  0.05849000  0.12241000  0.42076000  1.0
  Si  Si56  1  0.30849000  0.17076000  0.62759000  1.0
  Si  Si57  1  0.87759000  0.92076000  0.44151000  1.0
  Si  Si58  1  0.19151000  0.17076000  0.37241000  1.0
  Si  Si59  1  0.62241000  0.92076000  0.55849000  1.0
  Si  Si60  1  0.30849000  0.82924000  0.87241000  1.0
  Si  Si61  1  0.87759000  0.07924000  0.05849000  1.0
  Si  Si62  1  0.19151000  0.82924000  0.12759000  1.0
  Si  Si63  1  0.62241000  0.07924000  0.94151000  1.0
  Si  Si64  1  0.67076000  0.87241000  0.69151000  1.0
  Si  Si65  1  0.42076000  0.05849000  0.12241000  1.0
  Si  Si66  1  0.67076000  0.12759000  0.80849000  1.0
  Si  Si67  1  0.42076000  0.94151000  0.37759000  1.0
  Si  Si68  1  0.32924000  0.62759000  0.69151000  1.0
  Si  Si69  1  0.57924000  0.44151000  0.12241000  1.0
  Si  Si70  1  0.32924000  0.37241000  0.80849000  1.0
  Si  Si71  1  0.57924000  0.55849000  0.37759000  1.0
  Si  Si72  1  0.50000000  0.75000000  0.37008000  1.0
  Si  Si73  1  0.50000000  0.25000000  0.62008000  1.0
  Si  Si74  1  0.00000000  0.75000000  0.62992000  1.0
  Si  Si75  1  0.00000000  0.25000000  0.37992000  1.0
  Si  Si76  1  0.25000000  0.12992000  0.50000000  1.0
  Si  Si77  1  0.75000000  0.87992000  0.50000000  1.0
  Si  Si78  1  0.25000000  0.87008000  0.00000000  1.0
  Si  Si79  1  0.75000000  0.12008000  0.00000000  1.0
  Si  Si80  1  0.62992000  0.00000000  0.75000000  1.0
  Si  Si81  1  0.37992000  0.00000000  0.25000000  1.0
  Si  Si82  1  0.37008000  0.50000000  0.75000000  1.0
  Si  Si83  1  0.62008000  0.50000000  0.25000000  1.0
  Si  Si84  1  0.62100000  0.77076000  0.79420000  1.0
  Si  Si85  1  0.52076000  0.12900000  0.04420000  1.0
  Si  Si86  1  0.37900000  0.72924000  0.79420000  1.0
  Si  Si87  1  0.47924000  0.37100000  0.04420000  1.0
  Si  Si88  1  0.87900000  0.77076000  0.20580000  1.0
  Si  Si89  1  0.97924000  0.12900000  0.95580000  1.0
  Si  Si90  1  0.12100000  0.72924000  0.20580000  1.0
  Si  Si91  1  0.02076000  0.37100000  0.95580000  1.0
  Si  Si92  1  0.27076000  0.70580000  0.37900000  1.0
  Si  Si93  1  0.62900000  0.45580000  0.47924000  1.0
  Si  Si94  1  0.22924000  0.70580000  0.62100000  1.0
  Si  Si95  1  0.87100000  0.45580000  0.52076000  1.0
  Si  Si96  1  0.27076000  0.29420000  0.12100000  1.0
  Si  Si97  1  0.62900000  0.54420000  0.02076000  1.0
  Si  Si98  1  0.22924000  0.29420000  0.87900000  1.0
  Si  Si99  1  0.87100000  0.54420000  0.97924000  1.0
  Si  Si100  1  0.20580000  0.12100000  0.72924000  1.0
  Si  Si101  1  0.95580000  0.02076000  0.37100000  1.0
  Si  Si102  1  0.20580000  0.87900000  0.77076000  1.0
  Si  Si103  1  0.95580000  0.97924000  0.12900000  1.0
  Si  Si104  1  0.79420000  0.37900000  0.72924000  1.0
  Si  Si105  1  0.04420000  0.47924000  0.37100000  1.0
  Si  Si106  1  0.79420000  0.62100000  0.77076000  1.0
  Si  Si107  1  0.04420000  0.52076000  0.12900000  1.0
  Si  Si108  1  0.80681000  0.30075000  0.05115000  1.0
  Si  Si109  1  0.05075000  0.94319000  0.30115000  1.0
  Si  Si110  1  0.19319000  0.19925000  0.05115000  1.0
  Si  Si111  1  0.94925000  0.55681000  0.30115000  1.0
  Si  Si112  1  0.19319000  0.80075000  0.44885000  1.0
  Si  Si113  1  0.94925000  0.44319000  0.19885000  1.0
  Si  Si114  1  0.30681000  0.19925000  0.94885000  1.0
  Si  Si115  1  0.55075000  0.55681000  0.69885000  1.0
  Si  Si116  1  0.80075000  0.44885000  0.19319000  1.0
  Si  Si117  1  0.44319000  0.19885000  0.94925000  1.0
  Si  Si118  1  0.69925000  0.44885000  0.80681000  1.0
  Si  Si119  1  0.05681000  0.19885000  0.05075000  1.0
  Si  Si120  1  0.30075000  0.05115000  0.80681000  1.0
  Si  Si121  1  0.94319000  0.30115000  0.05075000  1.0
  Si  Si122  1  0.69925000  0.55115000  0.69319000  1.0
  Si  Si123  1  0.05681000  0.80115000  0.44925000  1.0
  Si  Si124  1  0.94885000  0.30681000  0.19925000  1.0
  Si  Si125  1  0.69885000  0.55075000  0.55681000  1.0
  Si  Si126  1  0.94885000  0.69319000  0.30075000  1.0
  Si  Si127  1  0.69885000  0.44925000  0.94319000  1.0
  Si  Si128  1  0.55115000  0.69319000  0.69925000  1.0
  Si  Si129  1  0.80115000  0.44925000  0.05681000  1.0
  Si  Si130  1  0.05115000  0.80681000  0.30075000  1.0
  Si  Si131  1  0.30115000  0.05075000  0.94319000  1.0
  Si  Si132  1  0.87241000  0.30849000  0.82924000  1.0
  Si  Si133  1  0.05849000  0.87759000  0.07924000  1.0
  Si  Si134  1  0.12759000  0.19151000  0.82924000  1.0
  Si  Si135  1  0.94151000  0.62241000  0.07924000  1.0
  Si  Si136  1  0.62759000  0.30849000  0.17076000  1.0
  Si  Si137  1  0.44151000  0.87759000  0.92076000  1.0
  Si  Si138  1  0.37241000  0.19151000  0.17076000  1.0
  Si  Si139  1  0.55849000  0.62241000  0.92076000  1.0
  Si  Si140  1  0.80849000  0.67076000  0.12759000  1.0
  Si  Si141  1  0.37759000  0.42076000  0.94151000  1.0
  Si  Si142  1  0.69151000  0.67076000  0.87241000  1.0
  Si  Si143  1  0.12241000  0.42076000  0.05849000  1.0
  Si  Si144  1  0.80849000  0.32924000  0.37241000  1.0
  Si  Si145  1  0.37759000  0.57924000  0.55849000  1.0
  Si  Si146  1  0.69151000  0.32924000  0.62759000  1.0
  Si  Si147  1  0.12241000  0.57924000  0.44151000  1.0
  Si  Si148  1  0.17076000  0.37241000  0.19151000  1.0
  Si  Si149  1  0.92076000  0.55849000  0.62241000  1.0
  Si  Si150  1  0.17076000  0.62759000  0.30849000  1.0
  Si  Si151  1  0.92076000  0.44151000  0.87759000  1.0
  Si  Si152  1  0.82924000  0.12759000  0.19151000  1.0
  Si  Si153  1  0.07924000  0.94151000  0.62241000  1.0
  Si  Si154  1  0.82924000  0.87241000  0.30849000  1.0
  Si  Si155  1  0.07924000  0.05849000  0.87759000  1.0
  Si  Si156  1  0.00000000  0.25000000  0.87008000  1.0
  Si  Si157  1  0.00000000  0.75000000  0.12008000  1.0
  Si  Si158  1  0.50000000  0.25000000  0.12992000  1.0
  Si  Si159  1  0.50000000  0.75000000  0.87992000  1.0
  Si  Si160  1  0.75000000  0.62992000  0.00000000  1.0
  Si  Si161  1  0.25000000  0.37992000  0.00000000  1.0
  Si  Si162  1  0.75000000  0.37008000  0.50000000  1.0
  Si  Si163  1  0.25000000  0.62008000  0.50000000  1.0
  Si  Si164  1  0.12992000  0.50000000  0.25000000  1.0
  Si  Si165  1  0.87992000  0.50000000  0.75000000  1.0
  Si  Si166  1  0.87008000  0.00000000  0.25000000  1.0
  Si  Si167  1  0.12008000  0.00000000  0.75000000  1.0
  O  O168  1  0.66642000  0.75224000  0.36002000  1.0
  O  O169  1  0.50224000  0.08358000  0.61002000  1.0
  O  O170  1  0.33358000  0.74776000  0.36002000  1.0
  O  O171  1  0.49776000  0.41642000  0.61002000  1.0
  O  O172  1  0.83358000  0.75224000  0.63998000  1.0
  O  O173  1  0.99776000  0.08358000  0.38998000  1.0
  O  O174  1  0.66642000  0.24776000  0.13998000  1.0
  O  O175  1  0.50224000  0.91642000  0.88998000  1.0
  O  O176  1  0.25224000  0.13998000  0.33358000  1.0
  O  O177  1  0.58358000  0.88998000  0.49776000  1.0
  O  O178  1  0.24776000  0.13998000  0.66642000  1.0
  O  O179  1  0.91642000  0.88998000  0.50224000  1.0
  O  O180  1  0.25224000  0.86002000  0.16642000  1.0
  O  O181  1  0.58358000  0.11002000  0.00224000  1.0
  O  O182  1  0.74776000  0.36002000  0.33358000  1.0
  O  O183  1  0.41642000  0.61002000  0.49776000  1.0
  O  O184  1  0.63998000  0.16642000  0.74776000  1.0
  O  O185  1  0.38998000  0.00224000  0.41642000  1.0
  O  O186  1  0.63998000  0.83358000  0.75224000  1.0
  O  O187  1  0.38998000  0.99776000  0.08358000  1.0
  O  O188  1  0.36002000  0.33358000  0.74776000  1.0
  O  O189  1  0.61002000  0.49776000  0.41642000  1.0
  O  O190  1  0.86002000  0.16642000  0.25224000  1.0
  O  O191  1  0.11002000  0.00224000  0.58358000  1.0
  O  O192  1  0.32400000  0.75704000  0.84403000  1.0
  O  O193  1  0.00704000  0.92600000  0.59403000  1.0
  O  O194  1  0.17600000  0.24296000  0.34403000  1.0
  O  O195  1  0.49296000  0.07400000  0.09403000  1.0
  O  O196  1  0.67600000  0.25704000  0.65597000  1.0
  O  O197  1  0.49296000  0.92600000  0.40597000  1.0
  O  O198  1  0.32400000  0.24296000  0.65597000  1.0
  O  O199  1  0.50704000  0.57400000  0.40597000  1.0
  O  O200  1  0.25704000  0.65597000  0.67600000  1.0
  O  O201  1  0.42600000  0.90597000  0.99296000  1.0
  O  O202  1  0.74296000  0.15597000  0.82400000  1.0
  O  O203  1  0.57400000  0.40597000  0.50704000  1.0
  O  O204  1  0.75704000  0.84403000  0.32400000  1.0
  O  O205  1  0.42600000  0.09403000  0.50704000  1.0
  O  O206  1  0.74296000  0.84403000  0.67600000  1.0
  O  O207  1  0.07400000  0.09403000  0.49296000  1.0
  O  O208  1  0.15597000  0.82400000  0.74296000  1.0
  O  O209  1  0.40597000  0.50704000  0.57400000  1.0
  O  O210  1  0.65597000  0.67600000  0.25704000  1.0
  O  O211  1  0.90597000  0.99296000  0.42600000  1.0
  O  O212  1  0.34403000  0.17600000  0.24296000  1.0
  O  O213  1  0.59403000  0.99296000  0.57400000  1.0
  O  O214  1  0.34403000  0.82400000  0.25704000  1.0
  O  O215  1  0.59403000  0.00704000  0.92600000  1.0
  O  O216  1  0.28806000  0.75766000  0.61328000  1.0
  O  O217  1  0.50766000  0.46194000  0.86328000  1.0
  O  O218  1  0.71194000  0.74234000  0.61328000  1.0
  O  O219  1  0.49234000  0.03806000  0.86328000  1.0
  O  O220  1  0.71194000  0.25766000  0.88672000  1.0
  O  O221  1  0.49234000  0.96194000  0.63672000  1.0
  O  O222  1  0.78806000  0.74234000  0.38672000  1.0
  O  O223  1  0.00766000  0.03806000  0.13672000  1.0
  O  O224  1  0.25766000  0.88672000  0.71194000  1.0
  O  O225  1  0.96194000  0.63672000  0.49234000  1.0
  O  O226  1  0.24234000  0.88672000  0.28806000  1.0
  O  O227  1  0.53806000  0.63672000  0.50766000  1.0
  O  O228  1  0.75766000  0.61328000  0.28806000  1.0
  O  O229  1  0.46194000  0.86328000  0.50766000  1.0
  O  O230  1  0.24234000  0.11328000  0.21194000  1.0
  O  O231  1  0.53806000  0.36328000  0.99234000  1.0
  O  O232  1  0.38672000  0.78806000  0.74234000  1.0
  O  O233  1  0.13672000  0.00766000  0.03806000  1.0
  O  O234  1  0.38672000  0.21194000  0.75766000  1.0
  O  O235  1  0.13672000  0.99234000  0.46194000  1.0
  O  O236  1  0.11328000  0.21194000  0.24234000  1.0
  O  O237  1  0.36328000  0.99234000  0.53806000  1.0
  O  O238  1  0.61328000  0.28806000  0.75766000  1.0
  O  O239  1  0.86328000  0.50766000  0.46194000  1.0
  O  O240  1  0.44643000  0.78304000  0.32327000  1.0
  O  O241  1  0.53304000  0.30357000  0.57327000  1.0
  O  O242  1  0.55357000  0.71696000  0.32327000  1.0
  O  O243  1  0.46696000  0.19643000  0.57327000  1.0
  O  O244  1  0.05357000  0.78304000  0.67673000  1.0
  O  O245  1  0.96696000  0.30357000  0.42673000  1.0
  O  O246  1  0.94643000  0.71696000  0.67673000  1.0
  O  O247  1  0.03304000  0.19643000  0.42673000  1.0
  O  O248  1  0.28304000  0.17673000  0.55357000  1.0
  O  O249  1  0.80357000  0.92673000  0.46696000  1.0
  O  O250  1  0.21696000  0.17673000  0.44643000  1.0
  O  O251  1  0.69643000  0.92673000  0.53304000  1.0
  O  O252  1  0.28304000  0.82327000  0.94643000  1.0
  O  O253  1  0.80357000  0.07327000  0.03304000  1.0
  O  O254  1  0.21696000  0.82327000  0.05357000  1.0
  O  O255  1  0.69643000  0.07327000  0.96696000  1.0
  O  O256  1  0.67673000  0.94643000  0.71696000  1.0
  O  O257  1  0.42673000  0.03304000  0.19643000  1.0
  O  O258  1  0.67673000  0.05357000  0.78304000  1.0
  O  O259  1  0.42673000  0.96696000  0.30357000  1.0
  O  O260  1  0.32327000  0.55357000  0.71696000  1.0
  O  O261  1  0.57327000  0.46696000  0.19643000  1.0
  O  O262  1  0.32327000  0.44643000  0.78304000  1.0
  O  O263  1  0.57327000  0.53304000  0.30357000  1.0
  O  O264  1  0.05426000  0.28372000  0.33366000  1.0
  O  O265  1  0.03372000  0.69574000  0.58366000  1.0
  O  O266  1  0.94574000  0.21628000  0.33366000  1.0
  O  O267  1  0.96628000  0.80426000  0.58366000  1.0
  O  O268  1  0.44574000  0.28372000  0.66634000  1.0
  O  O269  1  0.46628000  0.69574000  0.41634000  1.0
  O  O270  1  0.55426000  0.21628000  0.66634000  1.0
  O  O271  1  0.53372000  0.80426000  0.41634000  1.0
  O  O272  1  0.78372000  0.16634000  0.94574000  1.0
  O  O273  1  0.19574000  0.91634000  0.96628000  1.0
  O  O274  1  0.71628000  0.16634000  0.05426000  1.0
  O  O275  1  0.30426000  0.91634000  0.03372000  1.0
  O  O276  1  0.78372000  0.83366000  0.55426000  1.0
  O  O277  1  0.19574000  0.08366000  0.53372000  1.0
  O  O278  1  0.71628000  0.83366000  0.44574000  1.0
  O  O279  1  0.30426000  0.08366000  0.46628000  1.0
  O  O280  1  0.66634000  0.55426000  0.21628000  1.0
  O  O281  1  0.41634000  0.53372000  0.80426000  1.0
  O  O282  1  0.66634000  0.44574000  0.28372000  1.0
  O  O283  1  0.41634000  0.46628000  0.69574000  1.0
  O  O284  1  0.33366000  0.94574000  0.21628000  1.0
  O  O285  1  0.58366000  0.96628000  0.80426000  1.0
  O  O286  1  0.33366000  0.05426000  0.28372000  1.0
  O  O287  1  0.58366000  0.03372000  0.69574000  1.0
  O  O288  1  0.50000000  0.75000000  0.70674000  1.0
  O  O289  1  0.50000000  0.25000000  0.95674000  1.0
  O  O290  1  0.50000000  0.25000000  0.79326000  1.0
  O  O291  1  0.50000000  0.75000000  0.54326000  1.0
  O  O292  1  0.25000000  0.79326000  0.50000000  1.0
  O  O293  1  0.75000000  0.54326000  0.50000000  1.0
  O  O294  1  0.75000000  0.70674000  0.50000000  1.0
  O  O295  1  0.25000000  0.95674000  0.50000000  1.0
  O  O296  1  0.29326000  0.00000000  0.75000000  1.0
  O  O297  1  0.04326000  0.00000000  0.25000000  1.0
  O  O298  1  0.20674000  0.00000000  0.25000000  1.0
  O  O299  1  0.45674000  0.00000000  0.75000000  1.0
  O  O300  1  0.37500000  0.77278000  0.52278000  1.0
  O  O301  1  0.52278000  0.37500000  0.77278000  1.0
  O  O302  1  0.62500000  0.72722000  0.52278000  1.0
  O  O303  1  0.47722000  0.12500000  0.77278000  1.0
  O  O304  1  0.62500000  0.27278000  0.97722000  1.0
  O  O305  1  0.47722000  0.87500000  0.72722000  1.0
  O  O306  1  0.87500000  0.72722000  0.47722000  1.0
  O  O307  1  0.02278000  0.12500000  0.22722000  1.0
  O  O308  1  0.27278000  0.97722000  0.62500000  1.0
  O  O309  1  0.22722000  0.97722000  0.37500000  1.0
  O  O310  1  0.77278000  0.52278000  0.37500000  1.0
  O  O311  1  0.22722000  0.02278000  0.12500000  1.0
  O  O312  1  0.42964000  0.82036000  0.62500000  1.0
  O  O313  1  0.57036000  0.32036000  0.87500000  1.0
  O  O314  1  0.57036000  0.67964000  0.62500000  1.0
  O  O315  1  0.42964000  0.17964000  0.87500000  1.0
  O  O316  1  0.32036000  0.87500000  0.57036000  1.0
  O  O317  1  0.82036000  0.62500000  0.42964000  1.0
  O  O318  1  0.17964000  0.87500000  0.42964000  1.0
  O  O319  1  0.67964000  0.62500000  0.57036000  1.0
  O  O320  1  0.37500000  0.92964000  0.67964000  1.0
  O  O321  1  0.12500000  0.07036000  0.17964000  1.0
  O  O322  1  0.37500000  0.07036000  0.82036000  1.0
  O  O323  1  0.12500000  0.92964000  0.32036000  1.0
  O  O324  1  0.37500000  0.87476000  0.87524000  1.0
  O  O325  1  0.12476000  0.87500000  0.62524000  1.0
  O  O326  1  0.12500000  0.12524000  0.37524000  1.0
  O  O327  1  0.37524000  0.12500000  0.12524000  1.0
  O  O328  1  0.62500000  0.37476000  0.62476000  1.0
  O  O329  1  0.37524000  0.87500000  0.37476000  1.0
  O  O330  1  0.37500000  0.12524000  0.62476000  1.0
  O  O331  1  0.62476000  0.62500000  0.37476000  1.0
  O  O332  1  0.37476000  0.62476000  0.62500000  1.0
  O  O333  1  0.62524000  0.12476000  0.87500000  1.0
  O  O334  1  0.87476000  0.87524000  0.37500000  1.0
  O  O335  1  0.62524000  0.87524000  0.62500000  1.0
  O  O336  1  0.16642000  0.25224000  0.86002000  1.0
  O  O337  1  0.00224000  0.58358000  0.11002000  1.0
  O  O338  1  0.83358000  0.24776000  0.86002000  1.0
  O  O339  1  0.99776000  0.91642000  0.11002000  1.0
  O  O340  1  0.33358000  0.25224000  0.13998000  1.0
  O  O341  1  0.49776000  0.58358000  0.88998000  1.0
  O  O342  1  0.16642000  0.74776000  0.63998000  1.0
  O  O343  1  0.00224000  0.41642000  0.38998000  1.0
  O  O344  1  0.75224000  0.63998000  0.83358000  1.0
  O  O345  1  0.08358000  0.38998000  0.99776000  1.0
  O  O346  1  0.74776000  0.63998000  0.16642000  1.0
  O  O347  1  0.41642000  0.38998000  0.00224000  1.0
  O  O348  1  0.75224000  0.36002000  0.66642000  1.0
  O  O349  1  0.08358000  0.61002000  0.50224000  1.0
  O  O350  1  0.24776000  0.86002000  0.83358000  1.0
  O  O351  1  0.91642000  0.11002000  0.99776000  1.0
  O  O352  1  0.13998000  0.66642000  0.24776000  1.0
  O  O353  1  0.88998000  0.50224000  0.91642000  1.0
  O  O354  1  0.13998000  0.33358000  0.25224000  1.0
  O  O355  1  0.88998000  0.49776000  0.58358000  1.0
  O  O356  1  0.86002000  0.83358000  0.24776000  1.0
  O  O357  1  0.11002000  0.99776000  0.91642000  1.0
  O  O358  1  0.36002000  0.66642000  0.75224000  1.0
  O  O359  1  0.61002000  0.50224000  0.08358000  1.0
  O  O360  1  0.82400000  0.25704000  0.34403000  1.0
  O  O361  1  0.50704000  0.42600000  0.09403000  1.0
  O  O362  1  0.67600000  0.74296000  0.84403000  1.0
  O  O363  1  0.99296000  0.57400000  0.59403000  1.0
  O  O364  1  0.17600000  0.75704000  0.15597000  1.0
  O  O365  1  0.99296000  0.42600000  0.90597000  1.0
  O  O366  1  0.82400000  0.74296000  0.15597000  1.0
  O  O367  1  0.00704000  0.07400000  0.90597000  1.0
  O  O368  1  0.75704000  0.15597000  0.17600000  1.0
  O  O369  1  0.92600000  0.40597000  0.49296000  1.0
  O  O370  1  0.24296000  0.65597000  0.32400000  1.0
  O  O371  1  0.07400000  0.90597000  0.00704000  1.0
  O  O372  1  0.25704000  0.34403000  0.82400000  1.0
  O  O373  1  0.92600000  0.59403000  0.00704000  1.0
  O  O374  1  0.24296000  0.34403000  0.17600000  1.0
  O  O375  1  0.57400000  0.59403000  0.99296000  1.0
  O  O376  1  0.65597000  0.32400000  0.24296000  1.0
  O  O377  1  0.90597000  0.00704000  0.07400000  1.0
  O  O378  1  0.15597000  0.17600000  0.75704000  1.0
  O  O379  1  0.40597000  0.49296000  0.92600000  1.0
  O  O380  1  0.84403000  0.67600000  0.74296000  1.0
  O  O381  1  0.09403000  0.49296000  0.07400000  1.0
  O  O382  1  0.84403000  0.32400000  0.75704000  1.0
  O  O383  1  0.09403000  0.50704000  0.42600000  1.0
  O  O384  1  0.78806000  0.25766000  0.11328000  1.0
  O  O385  1  0.00766000  0.96194000  0.36328000  1.0
  O  O386  1  0.21194000  0.24234000  0.11328000  1.0
  O  O387  1  0.99234000  0.53806000  0.36328000  1.0
  O  O388  1  0.21194000  0.75766000  0.38672000  1.0
  O  O389  1  0.99234000  0.46194000  0.13672000  1.0
  O  O390  1  0.28806000  0.24234000  0.88672000  1.0
  O  O391  1  0.50766000  0.53806000  0.63672000  1.0
  O  O392  1  0.75766000  0.38672000  0.21194000  1.0
  O  O393  1  0.46194000  0.13672000  0.99234000  1.0
  O  O394  1  0.74234000  0.38672000  0.78806000  1.0
  O  O395  1  0.03806000  0.13672000  0.00766000  1.0
  O  O396  1  0.25766000  0.11328000  0.78806000  1.0
  O  O397  1  0.96194000  0.36328000  0.00766000  1.0
  O  O398  1  0.74234000  0.61328000  0.71194000  1.0
  O  O399  1  0.03806000  0.86328000  0.49234000  1.0
  O  O400  1  0.88672000  0.28806000  0.24234000  1.0
  O  O401  1  0.63672000  0.50766000  0.53806000  1.0
  O  O402  1  0.88672000  0.71194000  0.25766000  1.0
  O  O403  1  0.63672000  0.49234000  0.96194000  1.0
  O  O404  1  0.61328000  0.71194000  0.74234000  1.0
  O  O405  1  0.86328000  0.49234000  0.03806000  1.0
  O  O406  1  0.11328000  0.78806000  0.25766000  1.0
  O  O407  1  0.36328000  0.00766000  0.96194000  1.0
  O  O408  1  0.94643000  0.28304000  0.82327000  1.0
  O  O409  1  0.03304000  0.80357000  0.07327000  1.0
  O  O410  1  0.05357000  0.21696000  0.82327000  1.0
  O  O411  1  0.96696000  0.69643000  0.07327000  1.0
  O  O412  1  0.55357000  0.28304000  0.17673000  1.0
  O  O413  1  0.46696000  0.80357000  0.92673000  1.0
  O  O414  1  0.44643000  0.21696000  0.17673000  1.0
  O  O415  1  0.53304000  0.69643000  0.92673000  1.0
  O  O416  1  0.78304000  0.67673000  0.05357000  1.0
  O  O417  1  0.30357000  0.42673000  0.96696000  1.0
  O  O418  1  0.71696000  0.67673000  0.94643000  1.0
  O  O419  1  0.19643000  0.42673000  0.03304000  1.0
  O  O420  1  0.78304000  0.32327000  0.44643000  1.0
  O  O421  1  0.30357000  0.57327000  0.53304000  1.0
  O  O422  1  0.71696000  0.32327000  0.55357000  1.0
  O  O423  1  0.19643000  0.57327000  0.46696000  1.0
  O  O424  1  0.17673000  0.44643000  0.21696000  1.0
  O  O425  1  0.92673000  0.53304000  0.69643000  1.0
  O  O426  1  0.17673000  0.55357000  0.28304000  1.0
  O  O427  1  0.92673000  0.46696000  0.80357000  1.0
  O  O428  1  0.82327000  0.05357000  0.21696000  1.0
  O  O429  1  0.07327000  0.96696000  0.69643000  1.0
  O  O430  1  0.82327000  0.94643000  0.28304000  1.0
  O  O431  1  0.07327000  0.03304000  0.80357000  1.0
  O  O432  1  0.55426000  0.78372000  0.83366000  1.0
  O  O433  1  0.53372000  0.19574000  0.08366000  1.0
  O  O434  1  0.44574000  0.71628000  0.83366000  1.0
  O  O435  1  0.46628000  0.30426000  0.08366000  1.0
  O  O436  1  0.94574000  0.78372000  0.16634000  1.0
  O  O437  1  0.96628000  0.19574000  0.91634000  1.0
  O  O438  1  0.05426000  0.71628000  0.16634000  1.0
  O  O439  1  0.03372000  0.30426000  0.91634000  1.0
  O  O440  1  0.28372000  0.66634000  0.44574000  1.0
  O  O441  1  0.69574000  0.41634000  0.46628000  1.0
  O  O442  1  0.21628000  0.66634000  0.55426000  1.0
  O  O443  1  0.80426000  0.41634000  0.53372000  1.0
  O  O444  1  0.28372000  0.33366000  0.05426000  1.0
  O  O445  1  0.69574000  0.58366000  0.03372000  1.0
  O  O446  1  0.21628000  0.33366000  0.94574000  1.0
  O  O447  1  0.80426000  0.58366000  0.96628000  1.0
  O  O448  1  0.16634000  0.05426000  0.71628000  1.0
  O  O449  1  0.91634000  0.03372000  0.30426000  1.0
  O  O450  1  0.16634000  0.94574000  0.78372000  1.0
  O  O451  1  0.91634000  0.96628000  0.19574000  1.0
  O  O452  1  0.83366000  0.44574000  0.71628000  1.0
  O  O453  1  0.08366000  0.46628000  0.30426000  1.0
  O  O454  1  0.83366000  0.55426000  0.78372000  1.0
  O  O455  1  0.08366000  0.53372000  0.19574000  1.0
  O  O456  1  0.00000000  0.25000000  0.20674000  1.0
  O  O457  1  0.00000000  0.75000000  0.45674000  1.0
  O  O458  1  0.00000000  0.75000000  0.29326000  1.0
  O  O459  1  0.00000000  0.25000000  0.04326000  1.0
  O  O460  1  0.75000000  0.29326000  0.00000000  1.0
  O  O461  1  0.25000000  0.04326000  0.00000000  1.0
  O  O462  1  0.25000000  0.20674000  0.00000000  1.0
  O  O463  1  0.75000000  0.45674000  0.00000000  1.0
  O  O464  1  0.79326000  0.50000000  0.25000000  1.0
  O  O465  1  0.54326000  0.50000000  0.75000000  1.0
  O  O466  1  0.70674000  0.50000000  0.75000000  1.0
  O  O467  1  0.95674000  0.50000000  0.25000000  1.0
  O  O468  1  0.87500000  0.27278000  0.02278000  1.0
  O  O469  1  0.02278000  0.87500000  0.27278000  1.0
  O  O470  1  0.12500000  0.22722000  0.02278000  1.0
  O  O471  1  0.97722000  0.62500000  0.27278000  1.0
  O  O472  1  0.12500000  0.77278000  0.47722000  1.0
  O  O473  1  0.97722000  0.37500000  0.22722000  1.0
  O  O474  1  0.37500000  0.22722000  0.97722000  1.0
  O  O475  1  0.52278000  0.62500000  0.72722000  1.0
  O  O476  1  0.77278000  0.47722000  0.12500000  1.0
  O  O477  1  0.72722000  0.47722000  0.87500000  1.0
  O  O478  1  0.27278000  0.02278000  0.87500000  1.0
  O  O479  1  0.72722000  0.52278000  0.62500000  1.0
  O  O480  1  0.92964000  0.32036000  0.12500000  1.0
  O  O481  1  0.07036000  0.82036000  0.37500000  1.0
  O  O482  1  0.07036000  0.17964000  0.12500000  1.0
  O  O483  1  0.92964000  0.67964000  0.37500000  1.0
  O  O484  1  0.82036000  0.37500000  0.07036000  1.0
  O  O485  1  0.32036000  0.12500000  0.92964000  1.0
  O  O486  1  0.67964000  0.37500000  0.92964000  1.0
  O  O487  1  0.17964000  0.12500000  0.07036000  1.0
  O  O488  1  0.87500000  0.42964000  0.17964000  1.0
  O  O489  1  0.62500000  0.57036000  0.67964000  1.0
  O  O490  1  0.87500000  0.57036000  0.32036000  1.0
  O  O491  1  0.62500000  0.42964000  0.82036000  1.0
  O  O492  1  0.87500000  0.37476000  0.37524000  1.0
  O  O493  1  0.62476000  0.37500000  0.12524000  1.0
  O  O494  1  0.62500000  0.62524000  0.87524000  1.0
  O  O495  1  0.87524000  0.62500000  0.62524000  1.0
  O  O496  1  0.12500000  0.87476000  0.12476000  1.0
  O  O497  1  0.87524000  0.37500000  0.87476000  1.0
  O  O498  1  0.87500000  0.62524000  0.12476000  1.0
  O  O499  1  0.12476000  0.12500000  0.87476000  1.0
  O  O500  1  0.87476000  0.12476000  0.12500000  1.0
  O  O501  1  0.12524000  0.62476000  0.37500000  1.0
  O  O502  1  0.37476000  0.37524000  0.87500000  1.0
  O  O503  1  0.12524000  0.37524000  0.12500000  1.0
