# generated using pymatgen
data_SiO2
_symmetry_space_group_name_H-M   I4_132
_cell_length_a   20.53600000
_cell_length_b   20.53600000
_cell_length_c   20.53600000
_cell_angle_alpha   90.00000000
_cell_angle_beta   90.00000000
_cell_angle_gamma   90.00000000
_symmetry_Int_Tables_number   214
_chemical_formula_structural   SiO2
_chemical_formula_sum   'Si168 O336'
_cell_volume   8660.59175066
_cell_formula_units_Z   168
loop_
 _symmetry_equiv_pos_site_id
 _symmetry_equiv_pos_as_xyz
  1  'x, y, z'
  2  '-y+3/4, x+1/4, z+3/4'
  3  '-x, -y+1/2, z'
  4  'y+1/4, -x+1/4, z+3/4'
  5  'x, -y, -z+1/2'
  6  '-y+1/4, -x+1/4, -z+1/4'
  7  '-x+1/2, y, -z'
  8  'y+1/4, x+3/4, -z+3/4'
  9  'z, x, y'
  10  'z+1/4, -y+1/4, x+3/4'
  11  'z, -x, -y+1/2'
  12  'z+1/4, y+3/4, -x+3/4'
  13  '-z+1/2, x, -y'
  14  '-z+1/4, -y+1/4, -x+1/4'
  15  '-z, -x+1/2, y'
  16  '-z+3/4, y+1/4, x+3/4'
  17  'y, z, x'
  18  'x+1/4, z+3/4, -y+3/4'
  19  '-y+1/2, z, -x'
  20  '-x+3/4, z+1/4, y+3/4'
  21  '-y, -z+1/2, x'
  22  '-x+1/4, -z+1/4, -y+1/4'
  23  'y, -z, -x+1/2'
  24  'x+1/4, -z+1/4, y+3/4'
  25  'x+1/2, y+1/2, z+1/2'
  26  '-y+1/4, x+3/4, z+1/4'
  27  '-x+1/2, -y, z+1/2'
  28  'y+3/4, -x+3/4, z+1/4'
  29  'x+1/2, -y+1/2, -z'
  30  '-y+3/4, -x+3/4, -z+3/4'
  31  '-x, y+1/2, -z+1/2'
  32  'y+3/4, x+1/4, -z+1/4'
  33  'z+1/2, x+1/2, y+1/2'
  34  'z+3/4, -y+3/4, x+1/4'
  35  'z+1/2, -x+1/2, -y'
  36  'z+3/4, y+1/4, -x+1/4'
  37  '-z, x+1/2, -y+1/2'
  38  '-z+3/4, -y+3/4, -x+3/4'
  39  '-z+1/2, -x, y+1/2'
  40  '-z+1/4, y+3/4, x+1/4'
  41  'y+1/2, z+1/2, x+1/2'
  42  'x+3/4, z+1/4, -y+1/4'
  43  '-y, z+1/2, -x+1/2'
  44  '-x+1/4, z+3/4, y+1/4'
  45  '-y+1/2, -z, x+1/2'
  46  '-x+3/4, -z+3/4, -y+3/4'
  47  'y+1/2, -z+1/2, -x'
  48  'x+3/4, -z+3/4, y+1/4'
loop_
 _atom_site_type_symbol
 _atom_site_label
 _atom_site_symmetry_multiplicity
 _atom_site_fract_x
 _atom_site_fract_y
 _atom_site_fract_z
 _atom_site_occupancy
  Si  Si0  48  0.02076000  0.37100000  0.95580000  1
  Si  Si1  48  0.05075000  0.05681000  0.19885000  1
  Si  Si2  48  0.05849000  0.12241000  0.42076000  1
  Si  Si3  24  0.00000000  0.25000000  0.37992000  1
  O  O4  48  0.00224000  0.41642000  0.38998000  1
  O  O5  48  0.00704000  0.07400000  0.90597000  1
  O  O6  48  0.00766000  0.03806000  0.13672000  1
  O  O7  48  0.03304000  0.19643000  0.42673000  1
  O  O8  48  0.03372000  0.30426000  0.91634000  1
  O  O9  24  0.00000000  0.25000000  0.04326000  1
  O  O10  24  0.02278000  0.12500000  0.22722000  1
  O  O11  24  0.07036000  0.17964000  0.12500000  1
  O  O12  24  0.12476000  0.12500000  0.87476000  1
