# generated using pymatgen
data_Si32O65
_symmetry_space_group_name_H-M   'P 1'
_cell_length_a   15.82481000
_cell_length_b   25.58951000
_cell_length_c   26.03578000
_cell_angle_alpha   90.00000000
_cell_angle_beta   90.00000000
_cell_angle_gamma   90.00000000
_symmetry_Int_Tables_number   1
_chemical_formula_structural   Si32O65
_chemical_formula_sum   'Si128 O260'
_cell_volume   10543.16656121
_cell_formula_units_Z   4
loop_
 _symmetry_equiv_pos_site_id
 _symmetry_equiv_pos_as_xyz
  1  'x, y, z'
loop_
 _atom_site_type_symbol
 _atom_site_label
 _atom_site_symmetry_multiplicity
 _atom_site_fract_x
 _atom_site_fract_y
 _atom_site_fract_z
 _atom_site_occupancy
  Si  Si0  1  0.90320000  0.27340000  0.44131000  1.0
  Si  Si1  1  0.09680000  0.72660000  0.44131000  1.0
  Si  Si2  1  0.09680000  0.27340000  0.55869000  1.0
  Si  Si3  1  0.90320000  0.72660000  0.55869000  1.0
  Si  Si4  1  0.09680000  0.72660000  0.55869000  1.0
  Si  Si5  1  0.90320000  0.27340000  0.55869000  1.0
  Si  Si6  1  0.90320000  0.72660000  0.44131000  1.0
  Si  Si7  1  0.09680000  0.27340000  0.44131000  1.0
  Si  Si8  1  0.74630000  0.15502000  0.20774000  1.0
  Si  Si9  1  0.25370000  0.84498000  0.20774000  1.0
  Si  Si10  1  0.25370000  0.15502000  0.79226000  1.0
  Si  Si11  1  0.74630000  0.84498000  0.79226000  1.0
  Si  Si12  1  0.25370000  0.84498000  0.79226000  1.0
  Si  Si13  1  0.74630000  0.15502000  0.79226000  1.0
  Si  Si14  1  0.74630000  0.84498000  0.20774000  1.0
  Si  Si15  1  0.25370000  0.15502000  0.20774000  1.0
  Si  Si16  1  0.90422000  0.20840000  0.24858000  1.0
  Si  Si17  1  0.09578000  0.79160000  0.24858000  1.0
  Si  Si18  1  0.09578000  0.20840000  0.75142000  1.0
  Si  Si19  1  0.90422000  0.79160000  0.75142000  1.0
  Si  Si20  1  0.09578000  0.79160000  0.75142000  1.0
  Si  Si21  1  0.90422000  0.20840000  0.75142000  1.0
  Si  Si22  1  0.90422000  0.79160000  0.24858000  1.0
  Si  Si23  1  0.09578000  0.20840000  0.24858000  1.0
  Si  Si24  1  0.09667000  0.60466000  0.55888000  1.0
  Si  Si25  1  0.90333000  0.39534000  0.55888000  1.0
  Si  Si26  1  0.90333000  0.60466000  0.44112000  1.0
  Si  Si27  1  0.09667000  0.39534000  0.44112000  1.0
  Si  Si28  1  0.90333000  0.39534000  0.44112000  1.0
  Si  Si29  1  0.09667000  0.60466000  0.44112000  1.0
  Si  Si30  1  0.09667000  0.39534000  0.55888000  1.0
  Si  Si31  1  0.90333000  0.60466000  0.55888000  1.0
  Si  Si32  1  0.35072000  0.81189000  0.69501000  1.0
  Si  Si33  1  0.64928000  0.18811000  0.69501000  1.0
  Si  Si34  1  0.64928000  0.81189000  0.30499000  1.0
  Si  Si35  1  0.35072000  0.18811000  0.30499000  1.0
  Si  Si36  1  0.64928000  0.18811000  0.30499000  1.0
  Si  Si37  1  0.35072000  0.81189000  0.30499000  1.0
  Si  Si38  1  0.35072000  0.18811000  0.69501000  1.0
  Si  Si39  1  0.64928000  0.81189000  0.69501000  1.0
  Si  Si40  1  0.67100000  0.05966000  0.15636000  1.0
  Si  Si41  1  0.32900000  0.94034000  0.15636000  1.0
  Si  Si42  1  0.32900000  0.05966000  0.84364000  1.0
  Si  Si43  1  0.67100000  0.94034000  0.84364000  1.0
  Si  Si44  1  0.32900000  0.94034000  0.84364000  1.0
  Si  Si45  1  0.67100000  0.05966000  0.84364000  1.0
  Si  Si46  1  0.67100000  0.94034000  0.15636000  1.0
  Si  Si47  1  0.32900000  0.05966000  0.15636000  1.0
  Si  Si48  1  0.80721000  0.24152000  0.34582000  1.0
  Si  Si49  1  0.19279000  0.75848000  0.34582000  1.0
  Si  Si50  1  0.19279000  0.24152000  0.65418000  1.0
  Si  Si51  1  0.80721000  0.75848000  0.65418000  1.0
  Si  Si52  1  0.19279000  0.75848000  0.65418000  1.0
  Si  Si53  1  0.80721000  0.24152000  0.65418000  1.0
  Si  Si54  1  0.80721000  0.75848000  0.34582000  1.0
  Si  Si55  1  0.19279000  0.24152000  0.34582000  1.0
  Si  Si56  1  0.50000000  0.05933000  0.22012000  1.0
  Si  Si57  1  0.50000000  0.94067000  0.22012000  1.0
  Si  Si58  1  0.50000000  0.05933000  0.77988000  1.0
  Si  Si59  1  0.50000000  0.94067000  0.77988000  1.0
  Si  Si60  1  0.50000000  0.88198000  0.67323000  1.0
  Si  Si61  1  0.50000000  0.11802000  0.67323000  1.0
  Si  Si62  1  0.50000000  0.88198000  0.32677000  1.0
  Si  Si63  1  0.50000000  0.11802000  0.32677000  1.0
  Si  Si64  1  0.40320000  0.77340000  0.94131000  1.0
  Si  Si65  1  0.59680000  0.22660000  0.94131000  1.0
  Si  Si66  1  0.59680000  0.77340000  0.05869000  1.0
  Si  Si67  1  0.40320000  0.22660000  0.05869000  1.0
  Si  Si68  1  0.59680000  0.22660000  0.05869000  1.0
  Si  Si69  1  0.40320000  0.77340000  0.05869000  1.0
  Si  Si70  1  0.40320000  0.22660000  0.94131000  1.0
  Si  Si71  1  0.59680000  0.77340000  0.94131000  1.0
  Si  Si72  1  0.24630000  0.65502000  0.70774000  1.0
  Si  Si73  1  0.75370000  0.34498000  0.70774000  1.0
  Si  Si74  1  0.75370000  0.65502000  0.29226000  1.0
  Si  Si75  1  0.24630000  0.34498000  0.29226000  1.0
  Si  Si76  1  0.75370000  0.34498000  0.29226000  1.0
  Si  Si77  1  0.24630000  0.65502000  0.29226000  1.0
  Si  Si78  1  0.24630000  0.34498000  0.70774000  1.0
  Si  Si79  1  0.75370000  0.65502000  0.70774000  1.0
  Si  Si80  1  0.40422000  0.70840000  0.74858000  1.0
  Si  Si81  1  0.59578000  0.29160000  0.74858000  1.0
  Si  Si82  1  0.59578000  0.70840000  0.25142000  1.0
  Si  Si83  1  0.40422000  0.29160000  0.25142000  1.0
  Si  Si84  1  0.59578000  0.29160000  0.25142000  1.0
  Si  Si85  1  0.40422000  0.70840000  0.25142000  1.0
  Si  Si86  1  0.40422000  0.29160000  0.74858000  1.0
  Si  Si87  1  0.59578000  0.70840000  0.74858000  1.0
  Si  Si88  1  0.59667000  0.10466000  0.05888000  1.0
  Si  Si89  1  0.40333000  0.89534000  0.05888000  1.0
  Si  Si90  1  0.40333000  0.10466000  0.94112000  1.0
  Si  Si91  1  0.59667000  0.89534000  0.94112000  1.0
  Si  Si92  1  0.40333000  0.89534000  0.94112000  1.0
  Si  Si93  1  0.59667000  0.10466000  0.94112000  1.0
  Si  Si94  1  0.59667000  0.89534000  0.05888000  1.0
  Si  Si95  1  0.40333000  0.10466000  0.05888000  1.0
  Si  Si96  1  0.85072000  0.31189000  0.19501000  1.0
  Si  Si97  1  0.14928000  0.68811000  0.19501000  1.0
  Si  Si98  1  0.14928000  0.31189000  0.80499000  1.0
  Si  Si99  1  0.85072000  0.68811000  0.80499000  1.0
  Si  Si100  1  0.14928000  0.68811000  0.80499000  1.0
  Si  Si101  1  0.85072000  0.31189000  0.80499000  1.0
  Si  Si102  1  0.85072000  0.68811000  0.19501000  1.0
  Si  Si103  1  0.14928000  0.31189000  0.19501000  1.0
  Si  Si104  1  0.17100000  0.55966000  0.65636000  1.0
  Si  Si105  1  0.82900000  0.44034000  0.65636000  1.0
  Si  Si106  1  0.82900000  0.55966000  0.34364000  1.0
  Si  Si107  1  0.17100000  0.44034000  0.34364000  1.0
  Si  Si108  1  0.82900000  0.44034000  0.34364000  1.0
  Si  Si109  1  0.17100000  0.55966000  0.34364000  1.0
  Si  Si110  1  0.17100000  0.44034000  0.65636000  1.0
  Si  Si111  1  0.82900000  0.55966000  0.65636000  1.0
  Si  Si112  1  0.30721000  0.74152000  0.84582000  1.0
  Si  Si113  1  0.69279000  0.25848000  0.84582000  1.0
  Si  Si114  1  0.69279000  0.74152000  0.15418000  1.0
  Si  Si115  1  0.30721000  0.25848000  0.15418000  1.0
  Si  Si116  1  0.69279000  0.25848000  0.15418000  1.0
  Si  Si117  1  0.30721000  0.74152000  0.15418000  1.0
  Si  Si118  1  0.30721000  0.25848000  0.84582000  1.0
  Si  Si119  1  0.69279000  0.74152000  0.84582000  1.0
  Si  Si120  1  0.00000000  0.55933000  0.72012000  1.0
  Si  Si121  1  0.00000000  0.44067000  0.72012000  1.0
  Si  Si122  1  0.00000000  0.55933000  0.27988000  1.0
  Si  Si123  1  0.00000000  0.44067000  0.27988000  1.0
  Si  Si124  1  0.00000000  0.38198000  0.17323000  1.0
  Si  Si125  1  0.00000000  0.61802000  0.17323000  1.0
  Si  Si126  1  0.00000000  0.38198000  0.82677000  1.0
  Si  Si127  1  0.00000000  0.61802000  0.82677000  1.0
  O  O128  1  0.84363000  0.23980000  0.40356000  1.0
  O  O129  1  0.15637000  0.76020000  0.40356000  1.0
  O  O130  1  0.15637000  0.23980000  0.59644000  1.0
  O  O131  1  0.84363000  0.76020000  0.59644000  1.0
  O  O132  1  0.15637000  0.76020000  0.59644000  1.0
  O  O133  1  0.84363000  0.23980000  0.59644000  1.0
  O  O134  1  0.84363000  0.76020000  0.40356000  1.0
  O  O135  1  0.15637000  0.23980000  0.40356000  1.0
  O  O136  1  0.00000000  0.18713000  0.24700000  1.0
  O  O137  1  0.00000000  0.81287000  0.24700000  1.0
  O  O138  1  0.00000000  0.18713000  0.75300000  1.0
  O  O139  1  0.00000000  0.81287000  0.75300000  1.0
  O  O140  1  0.50000000  0.00000000  0.24073000  1.0
  O  O141  1  0.50000000  0.00000000  0.75927000  1.0
  O  O142  1  0.00000000  0.25536000  0.43433000  1.0
  O  O143  1  0.00000000  0.74464000  0.43433000  1.0
  O  O144  1  0.00000000  0.25536000  0.56567000  1.0
  O  O145  1  0.00000000  0.74464000  0.56567000  1.0
  O  O146  1  0.12406000  0.59556000  0.50000000  1.0
  O  O147  1  0.87594000  0.40444000  0.50000000  1.0
  O  O148  1  0.87594000  0.59556000  0.50000000  1.0
  O  O149  1  0.12406000  0.40444000  0.50000000  1.0
  O  O150  1  0.41673000  0.84726000  0.66323000  1.0
  O  O151  1  0.58327000  0.15274000  0.66323000  1.0
  O  O152  1  0.58327000  0.84726000  0.33677000  1.0
  O  O153  1  0.41673000  0.15274000  0.33677000  1.0
  O  O154  1  0.58327000  0.15274000  0.33677000  1.0
  O  O155  1  0.41673000  0.84726000  0.33677000  1.0
  O  O156  1  0.41673000  0.15274000  0.66323000  1.0
  O  O157  1  0.58327000  0.84726000  0.66323000  1.0
  O  O158  1  0.58292000  0.06928000  0.18575000  1.0
  O  O159  1  0.41708000  0.93072000  0.18575000  1.0
  O  O160  1  0.41708000  0.06928000  0.81425000  1.0
  O  O161  1  0.58292000  0.93072000  0.81425000  1.0
  O  O162  1  0.41708000  0.93072000  0.81425000  1.0
  O  O163  1  0.58292000  0.06928000  0.81425000  1.0
  O  O164  1  0.58292000  0.93072000  0.18575000  1.0
  O  O165  1  0.41708000  0.06928000  0.18575000  1.0
  O  O166  1  0.65740000  0.07127000  0.09612000  1.0
  O  O167  1  0.34260000  0.92873000  0.09612000  1.0
  O  O168  1  0.34260000  0.07127000  0.90388000  1.0
  O  O169  1  0.65740000  0.92873000  0.90388000  1.0
  O  O170  1  0.34260000  0.92873000  0.90388000  1.0
  O  O171  1  0.65740000  0.07127000  0.90388000  1.0
  O  O172  1  0.65740000  0.92873000  0.09612000  1.0
  O  O173  1  0.34260000  0.07127000  0.09612000  1.0
  O  O174  1  0.74052000  0.09907000  0.17960000  1.0
  O  O175  1  0.25948000  0.90093000  0.17960000  1.0
  O  O176  1  0.25948000  0.09907000  0.82040000  1.0
  O  O177  1  0.74052000  0.90093000  0.82040000  1.0
  O  O178  1  0.25948000  0.90093000  0.82040000  1.0
  O  O179  1  0.74052000  0.09907000  0.82040000  1.0
  O  O180  1  0.74052000  0.90093000  0.17960000  1.0
  O  O181  1  0.25948000  0.09907000  0.17960000  1.0
  O  O182  1  0.84014000  0.16323000  0.23027000  1.0
  O  O183  1  0.15986000  0.83677000  0.23027000  1.0
  O  O184  1  0.15986000  0.16323000  0.76973000  1.0
  O  O185  1  0.84014000  0.83677000  0.76973000  1.0
  O  O186  1  0.15986000  0.83677000  0.76973000  1.0
  O  O187  1  0.84014000  0.16323000  0.76973000  1.0
  O  O188  1  0.84014000  0.83677000  0.23027000  1.0
  O  O189  1  0.15986000  0.16323000  0.23027000  1.0
  O  O190  1  0.88130000  0.22605000  0.30627000  1.0
  O  O191  1  0.11870000  0.77395000  0.30627000  1.0
  O  O192  1  0.11870000  0.22605000  0.69373000  1.0
  O  O193  1  0.88130000  0.77395000  0.69373000  1.0
  O  O194  1  0.11870000  0.77395000  0.69373000  1.0
  O  O195  1  0.88130000  0.22605000  0.69373000  1.0
  O  O196  1  0.88130000  0.77395000  0.30627000  1.0
  O  O197  1  0.11870000  0.22605000  0.30627000  1.0
  O  O198  1  0.39598000  0.75788000  0.71074000  1.0
  O  O199  1  0.60402000  0.24212000  0.71074000  1.0
  O  O200  1  0.60402000  0.75788000  0.28926000  1.0
  O  O201  1  0.39598000  0.24212000  0.28926000  1.0
  O  O202  1  0.60402000  0.24212000  0.28926000  1.0
  O  O203  1  0.39598000  0.75788000  0.28926000  1.0
  O  O204  1  0.39598000  0.24212000  0.71074000  1.0
  O  O205  1  0.60402000  0.75788000  0.71074000  1.0
  O  O206  1  0.00000000  0.58665000  0.56664000  1.0
  O  O207  1  0.00000000  0.41335000  0.56664000  1.0
  O  O208  1  0.00000000  0.58665000  0.43336000  1.0
  O  O209  1  0.00000000  0.41335000  0.43336000  1.0
  O  O210  1  0.87463000  0.26439000  0.50000000  1.0
  O  O211  1  0.12537000  0.73561000  0.50000000  1.0
  O  O212  1  0.12537000  0.26439000  0.50000000  1.0
  O  O213  1  0.87463000  0.73561000  0.50000000  1.0
  O  O214  1  0.50000000  0.09934000  0.26777000  1.0
  O  O215  1  0.50000000  0.90066000  0.26777000  1.0
  O  O216  1  0.50000000  0.09934000  0.73223000  1.0
  O  O217  1  0.50000000  0.90066000  0.73223000  1.0
  O  O218  1  0.89457000  0.33435000  0.42697000  1.0
  O  O219  1  0.10543000  0.66565000  0.42697000  1.0
  O  O220  1  0.10543000  0.33435000  0.57303000  1.0
  O  O221  1  0.89457000  0.66565000  0.57303000  1.0
  O  O222  1  0.10543000  0.66565000  0.57303000  1.0
  O  O223  1  0.89457000  0.33435000  0.57303000  1.0
  O  O224  1  0.89457000  0.66565000  0.42697000  1.0
  O  O225  1  0.10543000  0.33435000  0.42697000  1.0
  O  O226  1  0.67892000  0.15758000  0.25401000  1.0
  O  O227  1  0.32108000  0.84242000  0.25401000  1.0
  O  O228  1  0.32108000  0.15758000  0.74599000  1.0
  O  O229  1  0.67892000  0.84242000  0.74599000  1.0
  O  O230  1  0.32108000  0.84242000  0.74599000  1.0
  O  O231  1  0.67892000  0.15758000  0.74599000  1.0
  O  O232  1  0.67892000  0.84242000  0.25401000  1.0
  O  O233  1  0.32108000  0.15758000  0.25401000  1.0
  O  O234  1  0.70063000  0.00000000  0.16418000  1.0
  O  O235  1  0.29937000  0.00000000  0.16418000  1.0
  O  O236  1  0.29937000  0.00000000  0.83582000  1.0
  O  O237  1  0.70063000  0.00000000  0.83582000  1.0
  O  O238  1  0.26961000  0.79936000  0.65975000  1.0
  O  O239  1  0.73039000  0.20064000  0.65975000  1.0
  O  O240  1  0.73039000  0.79936000  0.34025000  1.0
  O  O241  1  0.26961000  0.20064000  0.34025000  1.0
  O  O242  1  0.73039000  0.20064000  0.34025000  1.0
  O  O243  1  0.26961000  0.79936000  0.34025000  1.0
  O  O244  1  0.26961000  0.20064000  0.65975000  1.0
  O  O245  1  0.73039000  0.79936000  0.65975000  1.0
  O  O246  1  0.50000000  0.93214000  0.63593000  1.0
  O  O247  1  0.50000000  0.06786000  0.63593000  1.0
  O  O248  1  0.50000000  0.93214000  0.36407000  1.0
  O  O249  1  0.50000000  0.06786000  0.36407000  1.0
  O  O250  1  0.77398000  0.29957000  0.33325000  1.0
  O  O251  1  0.22602000  0.70043000  0.33325000  1.0
  O  O252  1  0.22602000  0.29957000  0.66675000  1.0
  O  O253  1  0.77398000  0.70043000  0.66675000  1.0
  O  O254  1  0.22602000  0.70043000  0.66675000  1.0
  O  O255  1  0.77398000  0.29957000  0.66675000  1.0
  O  O256  1  0.77398000  0.70043000  0.33325000  1.0
  O  O257  1  0.22602000  0.29957000  0.33325000  1.0
  O  O258  1  0.34363000  0.73980000  0.90356000  1.0
  O  O259  1  0.65637000  0.26020000  0.90356000  1.0
  O  O260  1  0.65637000  0.73980000  0.09644000  1.0
  O  O261  1  0.34363000  0.26020000  0.09644000  1.0
  O  O262  1  0.65637000  0.26020000  0.09644000  1.0
  O  O263  1  0.34363000  0.73980000  0.09644000  1.0
  O  O264  1  0.34363000  0.26020000  0.90356000  1.0
  O  O265  1  0.65637000  0.73980000  0.90356000  1.0
  O  O266  1  0.50000000  0.68713000  0.74700000  1.0
  O  O267  1  0.50000000  0.31287000  0.74700000  1.0
  O  O268  1  0.50000000  0.68713000  0.25300000  1.0
  O  O269  1  0.50000000  0.31287000  0.25300000  1.0
  O  O270  1  0.00000000  0.50000000  0.74073000  1.0
  O  O271  1  0.00000000  0.50000000  0.25927000  1.0
  O  O272  1  0.50000000  0.75536000  0.93433000  1.0
  O  O273  1  0.50000000  0.24464000  0.93433000  1.0
  O  O274  1  0.50000000  0.75536000  0.06567000  1.0
  O  O275  1  0.50000000  0.24464000  0.06567000  1.0
  O  O276  1  0.62406000  0.09556000  0.00000000  1.0
  O  O277  1  0.37594000  0.90444000  0.00000000  1.0
  O  O278  1  0.37594000  0.09556000  0.00000000  1.0
  O  O279  1  0.62406000  0.90444000  0.00000000  1.0
  O  O280  1  0.91673000  0.34726000  0.16323000  1.0
  O  O281  1  0.08327000  0.65274000  0.16323000  1.0
  O  O282  1  0.08327000  0.34726000  0.83677000  1.0
  O  O283  1  0.91673000  0.65274000  0.83677000  1.0
  O  O284  1  0.08327000  0.65274000  0.83677000  1.0
  O  O285  1  0.91673000  0.34726000  0.83677000  1.0
  O  O286  1  0.91673000  0.65274000  0.16323000  1.0
  O  O287  1  0.08327000  0.34726000  0.16323000  1.0
  O  O288  1  0.08292000  0.56928000  0.68575000  1.0
  O  O289  1  0.91708000  0.43072000  0.68575000  1.0
  O  O290  1  0.91708000  0.56928000  0.31425000  1.0
  O  O291  1  0.08292000  0.43072000  0.31425000  1.0
  O  O292  1  0.91708000  0.43072000  0.31425000  1.0
  O  O293  1  0.08292000  0.56928000  0.31425000  1.0
  O  O294  1  0.08292000  0.43072000  0.68575000  1.0
  O  O295  1  0.91708000  0.56928000  0.68575000  1.0
  O  O296  1  0.15740000  0.57127000  0.59612000  1.0
  O  O297  1  0.84260000  0.42873000  0.59612000  1.0
  O  O298  1  0.84260000  0.57127000  0.40388000  1.0
  O  O299  1  0.15740000  0.42873000  0.40388000  1.0
  O  O300  1  0.84260000  0.42873000  0.40388000  1.0
  O  O301  1  0.15740000  0.57127000  0.40388000  1.0
  O  O302  1  0.15740000  0.42873000  0.59612000  1.0
  O  O303  1  0.84260000  0.57127000  0.59612000  1.0
  O  O304  1  0.24052000  0.59907000  0.67960000  1.0
  O  O305  1  0.75948000  0.40093000  0.67960000  1.0
  O  O306  1  0.75948000  0.59907000  0.32040000  1.0
  O  O307  1  0.24052000  0.40093000  0.32040000  1.0
  O  O308  1  0.75948000  0.40093000  0.32040000  1.0
  O  O309  1  0.24052000  0.59907000  0.32040000  1.0
  O  O310  1  0.24052000  0.40093000  0.67960000  1.0
  O  O311  1  0.75948000  0.59907000  0.67960000  1.0
  O  O312  1  0.34014000  0.66323000  0.73027000  1.0
  O  O313  1  0.65986000  0.33677000  0.73027000  1.0
  O  O314  1  0.65986000  0.66323000  0.26973000  1.0
  O  O315  1  0.34014000  0.33677000  0.26973000  1.0
  O  O316  1  0.65986000  0.33677000  0.26973000  1.0
  O  O317  1  0.34014000  0.66323000  0.26973000  1.0
  O  O318  1  0.34014000  0.33677000  0.73027000  1.0
  O  O319  1  0.65986000  0.66323000  0.73027000  1.0
  O  O320  1  0.38130000  0.72605000  0.80627000  1.0
  O  O321  1  0.61870000  0.27395000  0.80627000  1.0
  O  O322  1  0.61870000  0.72605000  0.19373000  1.0
  O  O323  1  0.38130000  0.27395000  0.19373000  1.0
  O  O324  1  0.61870000  0.27395000  0.19373000  1.0
  O  O325  1  0.38130000  0.72605000  0.19373000  1.0
  O  O326  1  0.38130000  0.27395000  0.80627000  1.0
  O  O327  1  0.61870000  0.72605000  0.80627000  1.0
  O  O328  1  0.89598000  0.25788000  0.21074000  1.0
  O  O329  1  0.10402000  0.74212000  0.21074000  1.0
  O  O330  1  0.10402000  0.25788000  0.78926000  1.0
  O  O331  1  0.89598000  0.74212000  0.78926000  1.0
  O  O332  1  0.10402000  0.74212000  0.78926000  1.0
  O  O333  1  0.89598000  0.25788000  0.78926000  1.0
  O  O334  1  0.89598000  0.74212000  0.21074000  1.0
  O  O335  1  0.10402000  0.25788000  0.21074000  1.0
  O  O336  1  0.50000000  0.08665000  0.06664000  1.0
  O  O337  1  0.50000000  0.91335000  0.06664000  1.0
  O  O338  1  0.50000000  0.08665000  0.93336000  1.0
  O  O339  1  0.50000000  0.91335000  0.93336000  1.0
  O  O340  1  0.37463000  0.76439000  0.00000000  1.0
  O  O341  1  0.62537000  0.23561000  0.00000000  1.0
  O  O342  1  0.62537000  0.76439000  0.00000000  1.0
  O  O343  1  0.37463000  0.23561000  0.00000000  1.0
  O  O344  1  0.00000000  0.59934000  0.76777000  1.0
  O  O345  1  0.00000000  0.40066000  0.76777000  1.0
  O  O346  1  0.00000000  0.59934000  0.23223000  1.0
  O  O347  1  0.00000000  0.40066000  0.23223000  1.0
  O  O348  1  0.39457000  0.83435000  0.92697000  1.0
  O  O349  1  0.60543000  0.16565000  0.92697000  1.0
  O  O350  1  0.60543000  0.83435000  0.07303000  1.0
  O  O351  1  0.39457000  0.16565000  0.07303000  1.0
  O  O352  1  0.60543000  0.16565000  0.07303000  1.0
  O  O353  1  0.39457000  0.83435000  0.07303000  1.0
  O  O354  1  0.39457000  0.16565000  0.92697000  1.0
  O  O355  1  0.60543000  0.83435000  0.92697000  1.0
  O  O356  1  0.17892000  0.65758000  0.75401000  1.0
  O  O357  1  0.82108000  0.34242000  0.75401000  1.0
  O  O358  1  0.82108000  0.65758000  0.24599000  1.0
  O  O359  1  0.17892000  0.34242000  0.24599000  1.0
  O  O360  1  0.82108000  0.34242000  0.24599000  1.0
  O  O361  1  0.17892000  0.65758000  0.24599000  1.0
  O  O362  1  0.17892000  0.34242000  0.75401000  1.0
  O  O363  1  0.82108000  0.65758000  0.75401000  1.0
  O  O364  1  0.20063000  0.50000000  0.66418000  1.0
  O  O365  1  0.79937000  0.50000000  0.66418000  1.0
  O  O366  1  0.79937000  0.50000000  0.33582000  1.0
  O  O367  1  0.20063000  0.50000000  0.33582000  1.0
  O  O368  1  0.76961000  0.29936000  0.15975000  1.0
  O  O369  1  0.23039000  0.70064000  0.15975000  1.0
  O  O370  1  0.23039000  0.29936000  0.84025000  1.0
  O  O371  1  0.76961000  0.70064000  0.84025000  1.0
  O  O372  1  0.23039000  0.70064000  0.84025000  1.0
  O  O373  1  0.76961000  0.29936000  0.84025000  1.0
  O  O374  1  0.76961000  0.70064000  0.15975000  1.0
  O  O375  1  0.23039000  0.29936000  0.15975000  1.0
  O  O376  1  0.00000000  0.43214000  0.13593000  1.0
  O  O377  1  0.00000000  0.56786000  0.13593000  1.0
  O  O378  1  0.00000000  0.43214000  0.86407000  1.0
  O  O379  1  0.00000000  0.56786000  0.86407000  1.0
  O  O380  1  0.27398000  0.79957000  0.83325000  1.0
  O  O381  1  0.72602000  0.20043000  0.83325000  1.0
  O  O382  1  0.72602000  0.79957000  0.16675000  1.0
  O  O383  1  0.27398000  0.20043000  0.16675000  1.0
  O  O384  1  0.72602000  0.20043000  0.16675000  1.0
  O  O385  1  0.27398000  0.79957000  0.16675000  1.0
  O  O386  1  0.27398000  0.20043000  0.83325000  1.0
  O  O387  1  0.72602000  0.79957000  0.83325000  1.0
