# generated using pymatgen
data_SiO2
_symmetry_space_group_name_H-M   'P 1'
_cell_length_a   19.03099980
_cell_length_b   19.03099980
_cell_length_c   14.10100000
_cell_angle_alpha   90.00000000
_cell_angle_beta   90.00000000
_cell_angle_gamma   120.00000000
_symmetry_Int_Tables_number   1
_chemical_formula_structural   SiO2
_chemical_formula_sum   'Si52 O104'
_cell_volume   4422.86571451
_cell_formula_units_Z   52
loop_
 _symmetry_equiv_pos_site_id
 _symmetry_equiv_pos_as_xyz
  1  'x, y, z'
loop_
 _atom_site_type_symbol
 _atom_site_label
 _atom_site_symmetry_multiplicity
 _atom_site_fract_x
 _atom_site_fract_y
 _atom_site_fract_z
 _atom_site_occupancy
  Si  Si0  1  0.09220000  0.46620000  0.38830000  1.0
  Si  Si1  1  0.90780000  0.53380000  0.61170000  1.0
  Si  Si2  1  0.62600000  0.09220000  0.38830000  1.0
  Si  Si3  1  0.37400000  0.90780000  0.61170000  1.0
  Si  Si4  1  0.53380000  0.62600000  0.38830000  1.0
  Si  Si5  1  0.46620000  0.37400000  0.61170000  1.0
  Si  Si6  1  0.90780000  0.53380000  0.38830000  1.0
  Si  Si7  1  0.09220000  0.46620000  0.61170000  1.0
  Si  Si8  1  0.37400000  0.90780000  0.38830000  1.0
  Si  Si9  1  0.62600000  0.09220000  0.61170000  1.0
  Si  Si10  1  0.46620000  0.37400000  0.38830000  1.0
  Si  Si11  1  0.53380000  0.62600000  0.61170000  1.0
  Si  Si12  1  0.53380000  0.90780000  0.61170000  1.0
  Si  Si13  1  0.46620000  0.09220000  0.38830000  1.0
  Si  Si14  1  0.90780000  0.37400000  0.61170000  1.0
  Si  Si15  1  0.09220000  0.62600000  0.38830000  1.0
  Si  Si16  1  0.37400000  0.46620000  0.61170000  1.0
  Si  Si17  1  0.62600000  0.53380000  0.38830000  1.0
  Si  Si18  1  0.46620000  0.09220000  0.61170000  1.0
  Si  Si19  1  0.53380000  0.90780000  0.38830000  1.0
  Si  Si20  1  0.09220000  0.62600000  0.61170000  1.0
  Si  Si21  1  0.90780000  0.37400000  0.38830000  1.0
  Si  Si22  1  0.62600000  0.53380000  0.61170000  1.0
  Si  Si23  1  0.37400000  0.46620000  0.38830000  1.0
  Si  Si24  1  0.24325000  0.48650000  0.29890000  1.0
  Si  Si25  1  0.75675000  0.51350000  0.70110000  1.0
  Si  Si26  1  0.75675000  0.24325000  0.29890000  1.0
  Si  Si27  1  0.24325000  0.75675000  0.70110000  1.0
  Si  Si28  1  0.51350000  0.75675000  0.29890000  1.0
  Si  Si29  1  0.48650000  0.24325000  0.70110000  1.0
  Si  Si30  1  0.75675000  0.51350000  0.29890000  1.0
  Si  Si31  1  0.24325000  0.48650000  0.70110000  1.0
  Si  Si32  1  0.24325000  0.75675000  0.29890000  1.0
  Si  Si33  1  0.75675000  0.24325000  0.70110000  1.0
  Si  Si34  1  0.48650000  0.24325000  0.29890000  1.0
  Si  Si35  1  0.51350000  0.75675000  0.70110000  1.0
  Si  Si36  1  0.28205000  0.56410000  0.10560000  1.0
  Si  Si37  1  0.71795000  0.43590000  0.89440000  1.0
  Si  Si38  1  0.71795000  0.28205000  0.10560000  1.0
  Si  Si39  1  0.28205000  0.71795000  0.89440000  1.0
  Si  Si40  1  0.43590000  0.71795000  0.10560000  1.0
  Si  Si41  1  0.56410000  0.28205000  0.89440000  1.0
  Si  Si42  1  0.71795000  0.43590000  0.10560000  1.0
  Si  Si43  1  0.28205000  0.56410000  0.89440000  1.0
  Si  Si44  1  0.28205000  0.71795000  0.10560000  1.0
  Si  Si45  1  0.71795000  0.28205000  0.89440000  1.0
  Si  Si46  1  0.56410000  0.28205000  0.10560000  1.0
  Si  Si47  1  0.43590000  0.71795000  0.89440000  1.0
  Si  Si48  1  0.33333333  0.66666667  0.38610000  1.0
  Si  Si49  1  0.66666667  0.33333333  0.61390000  1.0
  Si  Si50  1  0.66666667  0.33333333  0.38610000  1.0
  Si  Si51  1  0.33333333  0.66666667  0.61390000  1.0
  O  O52  1  0.15020000  0.44030000  0.33360000  1.0
  O  O53  1  0.84980000  0.55970000  0.66640000  1.0
  O  O54  1  0.70990000  0.15020000  0.33360000  1.0
  O  O55  1  0.29010000  0.84980000  0.66640000  1.0
  O  O56  1  0.55970000  0.70990000  0.33360000  1.0
  O  O57  1  0.44030000  0.29010000  0.66640000  1.0
  O  O58  1  0.84980000  0.55970000  0.33360000  1.0
  O  O59  1  0.15020000  0.44030000  0.66640000  1.0
  O  O60  1  0.29010000  0.84980000  0.33360000  1.0
  O  O61  1  0.70990000  0.15020000  0.66640000  1.0
  O  O62  1  0.44030000  0.29010000  0.33360000  1.0
  O  O63  1  0.55970000  0.70990000  0.66640000  1.0
  O  O64  1  0.55970000  0.84980000  0.66640000  1.0
  O  O65  1  0.44030000  0.15020000  0.33360000  1.0
  O  O66  1  0.84980000  0.29010000  0.66640000  1.0
  O  O67  1  0.15020000  0.70990000  0.33360000  1.0
  O  O68  1  0.29010000  0.44030000  0.66640000  1.0
  O  O69  1  0.70990000  0.55970000  0.33360000  1.0
  O  O70  1  0.44030000  0.15020000  0.66640000  1.0
  O  O71  1  0.55970000  0.84980000  0.33360000  1.0
  O  O72  1  0.15020000  0.70990000  0.66640000  1.0
  O  O73  1  0.84980000  0.29010000  0.33360000  1.0
  O  O74  1  0.70990000  0.55970000  0.66640000  1.0
  O  O75  1  0.29010000  0.44030000  0.33360000  1.0
  O  O76  1  0.00000000  0.41010000  0.35300000  1.0
  O  O77  1  0.00000000  0.58990000  0.64700000  1.0
  O  O78  1  0.58990000  0.00000000  0.35300000  1.0
  O  O79  1  0.41010000  0.00000000  0.64700000  1.0
  O  O80  1  0.58990000  0.58990000  0.35300000  1.0
  O  O81  1  0.41010000  0.41010000  0.64700000  1.0
  O  O82  1  0.00000000  0.58990000  0.35300000  1.0
  O  O83  1  0.00000000  0.41010000  0.64700000  1.0
  O  O84  1  0.41010000  0.00000000  0.35300000  1.0
  O  O85  1  0.58990000  0.00000000  0.64700000  1.0
  O  O86  1  0.41010000  0.41010000  0.35300000  1.0
  O  O87  1  0.58990000  0.58990000  0.64700000  1.0
  O  O88  1  0.09690000  0.45170000  0.50000000  1.0
  O  O89  1  0.90310000  0.54830000  0.50000000  1.0
  O  O90  1  0.64520000  0.09690000  0.50000000  1.0
  O  O91  1  0.35480000  0.90310000  0.50000000  1.0
  O  O92  1  0.54830000  0.64520000  0.50000000  1.0
  O  O93  1  0.45170000  0.35480000  0.50000000  1.0
  O  O94  1  0.54830000  0.90310000  0.50000000  1.0
  O  O95  1  0.45170000  0.09690000  0.50000000  1.0
  O  O96  1  0.90310000  0.35480000  0.50000000  1.0
  O  O97  1  0.09690000  0.64520000  0.50000000  1.0
  O  O98  1  0.35480000  0.45170000  0.50000000  1.0
  O  O99  1  0.64520000  0.54830000  0.50000000  1.0
  O  O100  1  0.12000000  0.56000000  0.36950000  1.0
  O  O101  1  0.88000000  0.44000000  0.63050000  1.0
  O  O102  1  0.56000000  0.12000000  0.36950000  1.0
  O  O103  1  0.44000000  0.88000000  0.63050000  1.0
  O  O104  1  0.44000000  0.56000000  0.36950000  1.0
  O  O105  1  0.56000000  0.44000000  0.63050000  1.0
  O  O106  1  0.88000000  0.44000000  0.36950000  1.0
  O  O107  1  0.12000000  0.56000000  0.63050000  1.0
  O  O108  1  0.44000000  0.88000000  0.36950000  1.0
  O  O109  1  0.56000000  0.12000000  0.63050000  1.0
  O  O110  1  0.56000000  0.44000000  0.36950000  1.0
  O  O111  1  0.44000000  0.56000000  0.63050000  1.0
  O  O112  1  0.24210000  0.62105000  0.11760000  1.0
  O  O113  1  0.75790000  0.37895000  0.88240000  1.0
  O  O114  1  0.62105000  0.24210000  0.11760000  1.0
  O  O115  1  0.37895000  0.75790000  0.88240000  1.0
  O  O116  1  0.37895000  0.62105000  0.11760000  1.0
  O  O117  1  0.62105000  0.37895000  0.88240000  1.0
  O  O118  1  0.75790000  0.37895000  0.11760000  1.0
  O  O119  1  0.24210000  0.62105000  0.88240000  1.0
  O  O120  1  0.37895000  0.75790000  0.11760000  1.0
  O  O121  1  0.62105000  0.24210000  0.88240000  1.0
  O  O122  1  0.62105000  0.37895000  0.11760000  1.0
  O  O123  1  0.37895000  0.62105000  0.88240000  1.0
  O  O124  1  0.24700000  0.49400000  0.18500000  1.0
  O  O125  1  0.75300000  0.50600000  0.81500000  1.0
  O  O126  1  0.75300000  0.24700000  0.18500000  1.0
  O  O127  1  0.24700000  0.75300000  0.81500000  1.0
  O  O128  1  0.50600000  0.75300000  0.18500000  1.0
  O  O129  1  0.49400000  0.24700000  0.81500000  1.0
  O  O130  1  0.75300000  0.50600000  0.18500000  1.0
  O  O131  1  0.24700000  0.49400000  0.81500000  1.0
  O  O132  1  0.24700000  0.75300000  0.18500000  1.0
  O  O133  1  0.75300000  0.24700000  0.81500000  1.0
  O  O134  1  0.49400000  0.24700000  0.18500000  1.0
  O  O135  1  0.50600000  0.75300000  0.81500000  1.0
  O  O136  1  0.28755000  0.57510000  0.34680000  1.0
  O  O137  1  0.71245000  0.42490000  0.65320000  1.0
  O  O138  1  0.71245000  0.28755000  0.34680000  1.0
  O  O139  1  0.28755000  0.71245000  0.65320000  1.0
  O  O140  1  0.42490000  0.71245000  0.34680000  1.0
  O  O141  1  0.57510000  0.28755000  0.65320000  1.0
  O  O142  1  0.71245000  0.42490000  0.34680000  1.0
  O  O143  1  0.28755000  0.57510000  0.65320000  1.0
  O  O144  1  0.28755000  0.71245000  0.34680000  1.0
  O  O145  1  0.71245000  0.28755000  0.65320000  1.0
  O  O146  1  0.57510000  0.28755000  0.34680000  1.0
  O  O147  1  0.42490000  0.71245000  0.65320000  1.0
  O  O148  1  0.26335000  0.52670000  0.00000000  1.0
  O  O149  1  0.73665000  0.47330000  0.00000000  1.0
  O  O150  1  0.73665000  0.26335000  0.00000000  1.0
  O  O151  1  0.26335000  0.73665000  0.00000000  1.0
  O  O152  1  0.47330000  0.73665000  0.00000000  1.0
  O  O153  1  0.52670000  0.26335000  0.00000000  1.0
  O  O154  1  0.33333333  0.66666667  0.50000000  1.0
  O  O155  1  0.66666667  0.33333333  0.50000000  1.0
