# generated using pymatgen
data_Si38O77
_symmetry_space_group_name_H-M   P6_3/mmc
_cell_length_a   15.94990018
_cell_length_b   15.94990018
_cell_length_c   31.07960000
_cell_angle_alpha   90.00000000
_cell_angle_beta   90.00000000
_cell_angle_gamma   120.00000000
_symmetry_Int_Tables_number   194
_chemical_formula_structural   Si38O77
_chemical_formula_sum   'Si76 O154'
_cell_volume   6847.34154836
_cell_formula_units_Z   2
loop_
 _symmetry_equiv_pos_site_id
 _symmetry_equiv_pos_as_xyz
  1  'x, y, z'
  2  '-x, -y, -z'
  3  'x-y, x, z+1/2'
  4  '-x+y, -x, -z+1/2'
  5  '-y, x-y, z'
  6  'y, -x+y, -z'
  7  '-x, -y, z+1/2'
  8  'x, y, -z+1/2'
  9  '-x+y, -x, z'
  10  'x-y, x, -z'
  11  'y, -x+y, z+1/2'
  12  '-y, x-y, -z+1/2'
  13  '-y, -x, -z+1/2'
  14  'y, x, z+1/2'
  15  '-x, -x+y, -z'
  16  'x, x-y, z'
  17  '-x+y, y, -z+1/2'
  18  'x-y, -y, z+1/2'
  19  'y, x, -z'
  20  '-y, -x, z'
  21  'x, x-y, -z+1/2'
  22  '-x, -x+y, z+1/2'
  23  'x-y, -y, -z'
  24  '-x+y, y, z'
loop_
 _atom_site_type_symbol
 _atom_site_label
 _atom_site_symmetry_multiplicity
 _atom_site_fract_x
 _atom_site_fract_y
 _atom_site_fract_z
 _atom_site_occupancy
  Si  Si0  24  0.06580000  0.43690000  0.06400000  1
  Si  Si1  24  0.14110000  0.47460000  0.53190000  1
  Si  Si2  12  0.22535000  0.45070000  0.11490000  1
  Si  Si3  12  0.27215000  0.54430000  0.20180000  1
  Si  Si4  4  0.33333333  0.66666667  0.07650000  1
  O  O5  24  0.04940000  0.41310000  0.56290000  1
  O  O6  24  0.11020000  0.44070000  0.01710000  1
  O  O7  24  0.11540000  0.39790000  0.09770000  1
  O  O8  12  0.08680000  0.54340000  0.07710000  1
  O  O9  12  0.17600000  0.58800000  0.53630000  1
  O  O10  12  0.22460000  0.61230000  0.19610000  1
  O  O11  12  0.22830000  0.45660000  0.54550000  1
  O  O12  12  0.22945000  0.45890000  0.16670000  1
  O  O13  12  0.27865000  0.55730000  0.09420000  1
  O  O14  6  0.25055000  0.50110000  0.25000000  1
  O  O15  4  0.33333333  0.66666667  0.02470000  1
