# generated using pymatgen
data_Si38O77
_symmetry_space_group_name_H-M   'P 1'
_cell_length_a   15.94990018
_cell_length_b   15.94990018
_cell_length_c   31.07960000
_cell_angle_alpha   90.00000000
_cell_angle_beta   90.00000000
_cell_angle_gamma   120.00000000
_symmetry_Int_Tables_number   1
_chemical_formula_structural   Si38O77
_chemical_formula_sum   'Si76 O154'
_cell_volume   6847.34154965
_cell_formula_units_Z   2
loop_
 _symmetry_equiv_pos_site_id
 _symmetry_equiv_pos_as_xyz
  1  'x, y, z'
loop_
 _atom_site_type_symbol
 _atom_site_label
 _atom_site_symmetry_multiplicity
 _atom_site_fract_x
 _atom_site_fract_y
 _atom_site_fract_z
 _atom_site_occupancy
  Si  Si0  1  0.06580000  0.43690000  0.06400000  1.0
  Si  Si1  1  0.93420000  0.56310000  0.93600000  1.0
  Si  Si2  1  0.62890000  0.06580000  0.56400000  1.0
  Si  Si3  1  0.37110000  0.93420000  0.43600000  1.0
  Si  Si4  1  0.56310000  0.62890000  0.06400000  1.0
  Si  Si5  1  0.43690000  0.37110000  0.93600000  1.0
  Si  Si6  1  0.93420000  0.56310000  0.56400000  1.0
  Si  Si7  1  0.06580000  0.43690000  0.43600000  1.0
  Si  Si8  1  0.37110000  0.93420000  0.06400000  1.0
  Si  Si9  1  0.62890000  0.06580000  0.93600000  1.0
  Si  Si10  1  0.43690000  0.37110000  0.56400000  1.0
  Si  Si11  1  0.56310000  0.62890000  0.43600000  1.0
  Si  Si12  1  0.56310000  0.93420000  0.43600000  1.0
  Si  Si13  1  0.43690000  0.06580000  0.56400000  1.0
  Si  Si14  1  0.93420000  0.37110000  0.93600000  1.0
  Si  Si15  1  0.06580000  0.62890000  0.06400000  1.0
  Si  Si16  1  0.37110000  0.43690000  0.43600000  1.0
  Si  Si17  1  0.62890000  0.56310000  0.56400000  1.0
  Si  Si18  1  0.43690000  0.06580000  0.93600000  1.0
  Si  Si19  1  0.56310000  0.93420000  0.06400000  1.0
  Si  Si20  1  0.06580000  0.62890000  0.43600000  1.0
  Si  Si21  1  0.93420000  0.37110000  0.56400000  1.0
  Si  Si22  1  0.62890000  0.56310000  0.93600000  1.0
  Si  Si23  1  0.37110000  0.43690000  0.06400000  1.0
  Si  Si24  1  0.14110000  0.47460000  0.53190000  1.0
  Si  Si25  1  0.85890000  0.52540000  0.46810000  1.0
  Si  Si26  1  0.66650000  0.14110000  0.03190000  1.0
  Si  Si27  1  0.33350000  0.85890000  0.96810000  1.0
  Si  Si28  1  0.52540000  0.66650000  0.53190000  1.0
  Si  Si29  1  0.47460000  0.33350000  0.46810000  1.0
  Si  Si30  1  0.85890000  0.52540000  0.03190000  1.0
  Si  Si31  1  0.14110000  0.47460000  0.96810000  1.0
  Si  Si32  1  0.33350000  0.85890000  0.53190000  1.0
  Si  Si33  1  0.66650000  0.14110000  0.46810000  1.0
  Si  Si34  1  0.47460000  0.33350000  0.03190000  1.0
  Si  Si35  1  0.52540000  0.66650000  0.96810000  1.0
  Si  Si36  1  0.52540000  0.85890000  0.96810000  1.0
  Si  Si37  1  0.47460000  0.14110000  0.03190000  1.0
  Si  Si38  1  0.85890000  0.33350000  0.46810000  1.0
  Si  Si39  1  0.14110000  0.66650000  0.53190000  1.0
  Si  Si40  1  0.33350000  0.47460000  0.96810000  1.0
  Si  Si41  1  0.66650000  0.52540000  0.03190000  1.0
  Si  Si42  1  0.47460000  0.14110000  0.46810000  1.0
  Si  Si43  1  0.52540000  0.85890000  0.53190000  1.0
  Si  Si44  1  0.14110000  0.66650000  0.96810000  1.0
  Si  Si45  1  0.85890000  0.33350000  0.03190000  1.0
  Si  Si46  1  0.66650000  0.52540000  0.46810000  1.0
  Si  Si47  1  0.33350000  0.47460000  0.53190000  1.0
  Si  Si48  1  0.22535000  0.45070000  0.11490000  1.0
  Si  Si49  1  0.77465000  0.54930000  0.88510000  1.0
  Si  Si50  1  0.77465000  0.22535000  0.61490000  1.0
  Si  Si51  1  0.22535000  0.77465000  0.38510000  1.0
  Si  Si52  1  0.54930000  0.77465000  0.11490000  1.0
  Si  Si53  1  0.45070000  0.22535000  0.88510000  1.0
  Si  Si54  1  0.77465000  0.54930000  0.61490000  1.0
  Si  Si55  1  0.22535000  0.45070000  0.38510000  1.0
  Si  Si56  1  0.22535000  0.77465000  0.11490000  1.0
  Si  Si57  1  0.77465000  0.22535000  0.88510000  1.0
  Si  Si58  1  0.45070000  0.22535000  0.61490000  1.0
  Si  Si59  1  0.54930000  0.77465000  0.38510000  1.0
  Si  Si60  1  0.27215000  0.54430000  0.20180000  1.0
  Si  Si61  1  0.72785000  0.45570000  0.79820000  1.0
  Si  Si62  1  0.72785000  0.27215000  0.70180000  1.0
  Si  Si63  1  0.27215000  0.72785000  0.29820000  1.0
  Si  Si64  1  0.45570000  0.72785000  0.20180000  1.0
  Si  Si65  1  0.54430000  0.27215000  0.79820000  1.0
  Si  Si66  1  0.72785000  0.45570000  0.70180000  1.0
  Si  Si67  1  0.27215000  0.54430000  0.29820000  1.0
  Si  Si68  1  0.27215000  0.72785000  0.20180000  1.0
  Si  Si69  1  0.72785000  0.27215000  0.79820000  1.0
  Si  Si70  1  0.54430000  0.27215000  0.70180000  1.0
  Si  Si71  1  0.45570000  0.72785000  0.29820000  1.0
  Si  Si72  1  0.33333333  0.66666667  0.07650000  1.0
  Si  Si73  1  0.66666667  0.33333333  0.92350000  1.0
  Si  Si74  1  0.66666667  0.33333333  0.57650000  1.0
  Si  Si75  1  0.33333333  0.66666667  0.42350000  1.0
  O  O76  1  0.04940000  0.41310000  0.56290000  1.0
  O  O77  1  0.95060000  0.58690000  0.43710000  1.0
  O  O78  1  0.63630000  0.04940000  0.06290000  1.0
  O  O79  1  0.36370000  0.95060000  0.93710000  1.0
  O  O80  1  0.58690000  0.63630000  0.56290000  1.0
  O  O81  1  0.41310000  0.36370000  0.43710000  1.0
  O  O82  1  0.95060000  0.58690000  0.06290000  1.0
  O  O83  1  0.04940000  0.41310000  0.93710000  1.0
  O  O84  1  0.36370000  0.95060000  0.56290000  1.0
  O  O85  1  0.63630000  0.04940000  0.43710000  1.0
  O  O86  1  0.41310000  0.36370000  0.06290000  1.0
  O  O87  1  0.58690000  0.63630000  0.93710000  1.0
  O  O88  1  0.58690000  0.95060000  0.93710000  1.0
  O  O89  1  0.41310000  0.04940000  0.06290000  1.0
  O  O90  1  0.95060000  0.36370000  0.43710000  1.0
  O  O91  1  0.04940000  0.63630000  0.56290000  1.0
  O  O92  1  0.36370000  0.41310000  0.93710000  1.0
  O  O93  1  0.63630000  0.58690000  0.06290000  1.0
  O  O94  1  0.41310000  0.04940000  0.43710000  1.0
  O  O95  1  0.58690000  0.95060000  0.56290000  1.0
  O  O96  1  0.04940000  0.63630000  0.93710000  1.0
  O  O97  1  0.95060000  0.36370000  0.06290000  1.0
  O  O98  1  0.63630000  0.58690000  0.43710000  1.0
  O  O99  1  0.36370000  0.41310000  0.56290000  1.0
  O  O100  1  0.11020000  0.44070000  0.01710000  1.0
  O  O101  1  0.88980000  0.55930000  0.98290000  1.0
  O  O102  1  0.66950000  0.11020000  0.51710000  1.0
  O  O103  1  0.33050000  0.88980000  0.48290000  1.0
  O  O104  1  0.55930000  0.66950000  0.01710000  1.0
  O  O105  1  0.44070000  0.33050000  0.98290000  1.0
  O  O106  1  0.88980000  0.55930000  0.51710000  1.0
  O  O107  1  0.11020000  0.44070000  0.48290000  1.0
  O  O108  1  0.33050000  0.88980000  0.01710000  1.0
  O  O109  1  0.66950000  0.11020000  0.98290000  1.0
  O  O110  1  0.44070000  0.33050000  0.51710000  1.0
  O  O111  1  0.55930000  0.66950000  0.48290000  1.0
  O  O112  1  0.55930000  0.88980000  0.48290000  1.0
  O  O113  1  0.44070000  0.11020000  0.51710000  1.0
  O  O114  1  0.88980000  0.33050000  0.98290000  1.0
  O  O115  1  0.11020000  0.66950000  0.01710000  1.0
  O  O116  1  0.33050000  0.44070000  0.48290000  1.0
  O  O117  1  0.66950000  0.55930000  0.51710000  1.0
  O  O118  1  0.44070000  0.11020000  0.98290000  1.0
  O  O119  1  0.55930000  0.88980000  0.01710000  1.0
  O  O120  1  0.11020000  0.66950000  0.48290000  1.0
  O  O121  1  0.88980000  0.33050000  0.51710000  1.0
  O  O122  1  0.66950000  0.55930000  0.98290000  1.0
  O  O123  1  0.33050000  0.44070000  0.01710000  1.0
  O  O124  1  0.11540000  0.39790000  0.09770000  1.0
  O  O125  1  0.88460000  0.60210000  0.90230000  1.0
  O  O126  1  0.71750000  0.11540000  0.59770000  1.0
  O  O127  1  0.28250000  0.88460000  0.40230000  1.0
  O  O128  1  0.60210000  0.71750000  0.09770000  1.0
  O  O129  1  0.39790000  0.28250000  0.90230000  1.0
  O  O130  1  0.88460000  0.60210000  0.59770000  1.0
  O  O131  1  0.11540000  0.39790000  0.40230000  1.0
  O  O132  1  0.28250000  0.88460000  0.09770000  1.0
  O  O133  1  0.71750000  0.11540000  0.90230000  1.0
  O  O134  1  0.39790000  0.28250000  0.59770000  1.0
  O  O135  1  0.60210000  0.71750000  0.40230000  1.0
  O  O136  1  0.60210000  0.88460000  0.40230000  1.0
  O  O137  1  0.39790000  0.11540000  0.59770000  1.0
  O  O138  1  0.88460000  0.28250000  0.90230000  1.0
  O  O139  1  0.11540000  0.71750000  0.09770000  1.0
  O  O140  1  0.28250000  0.39790000  0.40230000  1.0
  O  O141  1  0.71750000  0.60210000  0.59770000  1.0
  O  O142  1  0.39790000  0.11540000  0.90230000  1.0
  O  O143  1  0.60210000  0.88460000  0.09770000  1.0
  O  O144  1  0.11540000  0.71750000  0.40230000  1.0
  O  O145  1  0.88460000  0.28250000  0.59770000  1.0
  O  O146  1  0.71750000  0.60210000  0.90230000  1.0
  O  O147  1  0.28250000  0.39790000  0.09770000  1.0
  O  O148  1  0.08680000  0.54340000  0.07710000  1.0
  O  O149  1  0.91320000  0.45660000  0.92290000  1.0
  O  O150  1  0.54340000  0.08680000  0.57710000  1.0
  O  O151  1  0.45660000  0.91320000  0.42290000  1.0
  O  O152  1  0.45660000  0.54340000  0.07710000  1.0
  O  O153  1  0.54340000  0.45660000  0.92290000  1.0
  O  O154  1  0.91320000  0.45660000  0.57710000  1.0
  O  O155  1  0.08680000  0.54340000  0.42290000  1.0
  O  O156  1  0.45660000  0.91320000  0.07710000  1.0
  O  O157  1  0.54340000  0.08680000  0.92290000  1.0
  O  O158  1  0.54340000  0.45660000  0.57710000  1.0
  O  O159  1  0.45660000  0.54340000  0.42290000  1.0
  O  O160  1  0.17600000  0.58800000  0.53630000  1.0
  O  O161  1  0.82400000  0.41200000  0.46370000  1.0
  O  O162  1  0.58800000  0.17600000  0.03630000  1.0
  O  O163  1  0.41200000  0.82400000  0.96370000  1.0
  O  O164  1  0.41200000  0.58800000  0.53630000  1.0
  O  O165  1  0.58800000  0.41200000  0.46370000  1.0
  O  O166  1  0.82400000  0.41200000  0.03630000  1.0
  O  O167  1  0.17600000  0.58800000  0.96370000  1.0
  O  O168  1  0.41200000  0.82400000  0.53630000  1.0
  O  O169  1  0.58800000  0.17600000  0.46370000  1.0
  O  O170  1  0.58800000  0.41200000  0.03630000  1.0
  O  O171  1  0.41200000  0.58800000  0.96370000  1.0
  O  O172  1  0.22460000  0.61230000  0.19610000  1.0
  O  O173  1  0.77540000  0.38770000  0.80390000  1.0
  O  O174  1  0.61230000  0.22460000  0.69610000  1.0
  O  O175  1  0.38770000  0.77540000  0.30390000  1.0
  O  O176  1  0.38770000  0.61230000  0.19610000  1.0
  O  O177  1  0.61230000  0.38770000  0.80390000  1.0
  O  O178  1  0.77540000  0.38770000  0.69610000  1.0
  O  O179  1  0.22460000  0.61230000  0.30390000  1.0
  O  O180  1  0.38770000  0.77540000  0.19610000  1.0
  O  O181  1  0.61230000  0.22460000  0.80390000  1.0
  O  O182  1  0.61230000  0.38770000  0.69610000  1.0
  O  O183  1  0.38770000  0.61230000  0.30390000  1.0
  O  O184  1  0.22830000  0.45660000  0.54550000  1.0
  O  O185  1  0.77170000  0.54340000  0.45450000  1.0
  O  O186  1  0.77170000  0.22830000  0.04550000  1.0
  O  O187  1  0.22830000  0.77170000  0.95450000  1.0
  O  O188  1  0.54340000  0.77170000  0.54550000  1.0
  O  O189  1  0.45660000  0.22830000  0.45450000  1.0
  O  O190  1  0.77170000  0.54340000  0.04550000  1.0
  O  O191  1  0.22830000  0.45660000  0.95450000  1.0
  O  O192  1  0.22830000  0.77170000  0.54550000  1.0
  O  O193  1  0.77170000  0.22830000  0.45450000  1.0
  O  O194  1  0.45660000  0.22830000  0.04550000  1.0
  O  O195  1  0.54340000  0.77170000  0.95450000  1.0
  O  O196  1  0.22945000  0.45890000  0.16670000  1.0
  O  O197  1  0.77055000  0.54110000  0.83330000  1.0
  O  O198  1  0.77055000  0.22945000  0.66670000  1.0
  O  O199  1  0.22945000  0.77055000  0.33330000  1.0
  O  O200  1  0.54110000  0.77055000  0.16670000  1.0
  O  O201  1  0.45890000  0.22945000  0.83330000  1.0
  O  O202  1  0.77055000  0.54110000  0.66670000  1.0
  O  O203  1  0.22945000  0.45890000  0.33330000  1.0
  O  O204  1  0.22945000  0.77055000  0.16670000  1.0
  O  O205  1  0.77055000  0.22945000  0.83330000  1.0
  O  O206  1  0.45890000  0.22945000  0.66670000  1.0
  O  O207  1  0.54110000  0.77055000  0.33330000  1.0
  O  O208  1  0.27865000  0.55730000  0.09420000  1.0
  O  O209  1  0.72135000  0.44270000  0.90580000  1.0
  O  O210  1  0.72135000  0.27865000  0.59420000  1.0
  O  O211  1  0.27865000  0.72135000  0.40580000  1.0
  O  O212  1  0.44270000  0.72135000  0.09420000  1.0
  O  O213  1  0.55730000  0.27865000  0.90580000  1.0
  O  O214  1  0.72135000  0.44270000  0.59420000  1.0
  O  O215  1  0.27865000  0.55730000  0.40580000  1.0
  O  O216  1  0.27865000  0.72135000  0.09420000  1.0
  O  O217  1  0.72135000  0.27865000  0.90580000  1.0
  O  O218  1  0.55730000  0.27865000  0.59420000  1.0
  O  O219  1  0.44270000  0.72135000  0.40580000  1.0
  O  O220  1  0.25055000  0.50110000  0.25000000  1.0
  O  O221  1  0.74945000  0.49890000  0.75000000  1.0
  O  O222  1  0.74945000  0.25055000  0.75000000  1.0
  O  O223  1  0.25055000  0.74945000  0.25000000  1.0
  O  O224  1  0.49890000  0.74945000  0.25000000  1.0
  O  O225  1  0.50110000  0.25055000  0.75000000  1.0
  O  O226  1  0.33333333  0.66666667  0.02470000  1.0
  O  O227  1  0.66666667  0.33333333  0.97530000  1.0
  O  O228  1  0.66666667  0.33333333  0.52470000  1.0
  O  O229  1  0.33333333  0.66666667  0.47530000  1.0
