# generated using pymatgen
data_SiO2
_symmetry_space_group_name_H-M   'P 1'
_cell_length_a   12.87400000
_cell_length_b   12.87400000
_cell_length_c   25.67400000
_cell_angle_alpha   90.00000000
_cell_angle_beta   90.00000000
_cell_angle_gamma   90.00000000
_symmetry_Int_Tables_number   1
_chemical_formula_structural   SiO2
_chemical_formula_sum   'Si64 O128'
_cell_volume   4255.20557642
_cell_formula_units_Z   64
loop_
 _symmetry_equiv_pos_site_id
 _symmetry_equiv_pos_as_xyz
  1  'x, y, z'
loop_
 _atom_site_type_symbol
 _atom_site_label
 _atom_site_symmetry_multiplicity
 _atom_site_fract_x
 _atom_site_fract_y
 _atom_site_fract_z
 _atom_site_occupancy
  Si  Si0  1  0.11680000  0.11850000  0.43880000  1.0
  Si  Si1  1  0.88320000  0.88150000  0.56120000  1.0
  Si  Si2  1  0.88150000  0.11680000  0.93880000  1.0
  Si  Si3  1  0.11850000  0.88320000  0.06120000  1.0
  Si  Si4  1  0.88320000  0.88150000  0.43880000  1.0
  Si  Si5  1  0.11680000  0.11850000  0.56120000  1.0
  Si  Si6  1  0.11850000  0.88320000  0.93880000  1.0
  Si  Si7  1  0.88150000  0.11680000  0.06120000  1.0
  Si  Si8  1  0.11680000  0.88150000  0.56120000  1.0
  Si  Si9  1  0.88320000  0.11850000  0.43880000  1.0
  Si  Si10  1  0.88150000  0.88320000  0.06120000  1.0
  Si  Si11  1  0.11850000  0.11680000  0.93880000  1.0
  Si  Si12  1  0.88320000  0.11850000  0.56120000  1.0
  Si  Si13  1  0.11680000  0.88150000  0.43880000  1.0
  Si  Si14  1  0.11850000  0.11680000  0.06120000  1.0
  Si  Si15  1  0.88150000  0.88320000  0.93880000  1.0
  Si  Si16  1  0.24940000  0.30790000  0.40400000  1.0
  Si  Si17  1  0.75060000  0.69210000  0.59600000  1.0
  Si  Si18  1  0.69210000  0.24940000  0.90400000  1.0
  Si  Si19  1  0.30790000  0.75060000  0.09600000  1.0
  Si  Si20  1  0.75060000  0.69210000  0.40400000  1.0
  Si  Si21  1  0.24940000  0.30790000  0.59600000  1.0
  Si  Si22  1  0.30790000  0.75060000  0.90400000  1.0
  Si  Si23  1  0.69210000  0.24940000  0.09600000  1.0
  Si  Si24  1  0.24940000  0.69210000  0.59600000  1.0
  Si  Si25  1  0.75060000  0.30790000  0.40400000  1.0
  Si  Si26  1  0.69210000  0.75060000  0.09600000  1.0
  Si  Si27  1  0.30790000  0.24940000  0.90400000  1.0
  Si  Si28  1  0.75060000  0.30790000  0.59600000  1.0
  Si  Si29  1  0.24940000  0.69210000  0.40400000  1.0
  Si  Si30  1  0.30790000  0.24940000  0.09600000  1.0
  Si  Si31  1  0.69210000  0.75060000  0.90400000  1.0
  Si  Si32  1  0.37740000  0.38240000  0.19030000  1.0
  Si  Si33  1  0.62260000  0.61760000  0.80970000  1.0
  Si  Si34  1  0.61760000  0.37740000  0.69030000  1.0
  Si  Si35  1  0.38240000  0.62260000  0.30970000  1.0
  Si  Si36  1  0.62260000  0.61760000  0.19030000  1.0
  Si  Si37  1  0.37740000  0.38240000  0.80970000  1.0
  Si  Si38  1  0.38240000  0.62260000  0.69030000  1.0
  Si  Si39  1  0.61760000  0.37740000  0.30970000  1.0
  Si  Si40  1  0.37740000  0.61760000  0.80970000  1.0
  Si  Si41  1  0.62260000  0.38240000  0.19030000  1.0
  Si  Si42  1  0.61760000  0.62260000  0.30970000  1.0
  Si  Si43  1  0.38240000  0.37740000  0.69030000  1.0
  Si  Si44  1  0.62260000  0.38240000  0.80970000  1.0
  Si  Si45  1  0.37740000  0.61760000  0.19030000  1.0
  Si  Si46  1  0.38240000  0.37740000  0.30970000  1.0
  Si  Si47  1  0.61760000  0.62260000  0.69030000  1.0
  Si  Si48  1  0.12480000  0.50000000  0.44120000  1.0
  Si  Si49  1  0.87520000  0.50000000  0.55880000  1.0
  Si  Si50  1  0.50000000  0.12480000  0.94120000  1.0
  Si  Si51  1  0.50000000  0.87520000  0.05880000  1.0
  Si  Si52  1  0.87520000  0.50000000  0.44120000  1.0
  Si  Si53  1  0.12480000  0.50000000  0.55880000  1.0
  Si  Si54  1  0.50000000  0.87520000  0.94120000  1.0
  Si  Si55  1  0.50000000  0.12480000  0.05880000  1.0
  Si  Si56  1  0.37520000  0.38230000  0.50000000  1.0
  Si  Si57  1  0.62480000  0.61770000  0.50000000  1.0
  Si  Si58  1  0.61770000  0.37520000  0.00000000  1.0
  Si  Si59  1  0.38230000  0.62480000  0.00000000  1.0
  Si  Si60  1  0.37520000  0.61770000  0.50000000  1.0
  Si  Si61  1  0.62480000  0.38230000  0.50000000  1.0
  Si  Si62  1  0.61770000  0.62480000  0.00000000  1.0
  Si  Si63  1  0.38230000  0.37520000  0.00000000  1.0
  O  O64  1  0.16370000  0.39800000  0.41060000  1.0
  O  O65  1  0.83630000  0.60200000  0.58940000  1.0
  O  O66  1  0.60200000  0.16370000  0.91060000  1.0
  O  O67  1  0.39800000  0.83630000  0.08940000  1.0
  O  O68  1  0.83630000  0.60200000  0.41060000  1.0
  O  O69  1  0.16370000  0.39800000  0.58940000  1.0
  O  O70  1  0.39800000  0.83630000  0.91060000  1.0
  O  O71  1  0.60200000  0.16370000  0.08940000  1.0
  O  O72  1  0.16370000  0.60200000  0.58940000  1.0
  O  O73  1  0.83630000  0.39800000  0.41060000  1.0
  O  O74  1  0.60200000  0.83630000  0.08940000  1.0
  O  O75  1  0.39800000  0.16370000  0.91060000  1.0
  O  O76  1  0.83630000  0.39800000  0.58940000  1.0
  O  O77  1  0.16370000  0.60200000  0.41060000  1.0
  O  O78  1  0.39800000  0.16370000  0.08940000  1.0
  O  O79  1  0.60200000  0.83630000  0.91060000  1.0
  O  O80  1  0.19450000  0.19590000  0.40870000  1.0
  O  O81  1  0.80550000  0.80410000  0.59130000  1.0
  O  O82  1  0.80410000  0.19450000  0.90870000  1.0
  O  O83  1  0.19590000  0.80550000  0.09130000  1.0
  O  O84  1  0.80550000  0.80410000  0.40870000  1.0
  O  O85  1  0.19450000  0.19590000  0.59130000  1.0
  O  O86  1  0.19590000  0.80550000  0.90870000  1.0
  O  O87  1  0.80410000  0.19450000  0.09130000  1.0
  O  O88  1  0.19450000  0.80410000  0.59130000  1.0
  O  O89  1  0.80550000  0.19590000  0.40870000  1.0
  O  O90  1  0.80410000  0.80550000  0.09130000  1.0
  O  O91  1  0.19590000  0.19450000  0.90870000  1.0
  O  O92  1  0.80550000  0.19590000  0.59130000  1.0
  O  O93  1  0.19450000  0.80410000  0.40870000  1.0
  O  O94  1  0.19590000  0.19450000  0.09130000  1.0
  O  O95  1  0.80410000  0.80550000  0.90870000  1.0
  O  O96  1  0.30400000  0.31640000  0.34780000  1.0
  O  O97  1  0.69600000  0.68360000  0.65220000  1.0
  O  O98  1  0.68360000  0.30400000  0.84780000  1.0
  O  O99  1  0.31640000  0.69600000  0.15220000  1.0
  O  O100  1  0.69600000  0.68360000  0.34780000  1.0
  O  O101  1  0.30400000  0.31640000  0.65220000  1.0
  O  O102  1  0.31640000  0.69600000  0.84780000  1.0
  O  O103  1  0.68360000  0.30400000  0.15220000  1.0
  O  O104  1  0.30400000  0.68360000  0.65220000  1.0
  O  O105  1  0.69600000  0.31640000  0.34780000  1.0
  O  O106  1  0.68360000  0.69600000  0.15220000  1.0
  O  O107  1  0.31640000  0.30400000  0.84780000  1.0
  O  O108  1  0.69600000  0.31640000  0.65220000  1.0
  O  O109  1  0.30400000  0.68360000  0.34780000  1.0
  O  O110  1  0.31640000  0.30400000  0.15220000  1.0
  O  O111  1  0.68360000  0.69600000  0.84780000  1.0
  O  O112  1  0.32160000  0.33550000  0.05110000  1.0
  O  O113  1  0.67840000  0.66450000  0.94890000  1.0
  O  O114  1  0.66450000  0.32160000  0.55110000  1.0
  O  O115  1  0.33550000  0.67840000  0.44890000  1.0
  O  O116  1  0.67840000  0.66450000  0.05110000  1.0
  O  O117  1  0.32160000  0.33550000  0.94890000  1.0
  O  O118  1  0.33550000  0.67840000  0.55110000  1.0
  O  O119  1  0.66450000  0.32160000  0.44890000  1.0
  O  O120  1  0.32160000  0.66450000  0.94890000  1.0
  O  O121  1  0.67840000  0.33550000  0.05110000  1.0
  O  O122  1  0.66450000  0.67840000  0.44890000  1.0
  O  O123  1  0.33550000  0.32160000  0.55110000  1.0
  O  O124  1  0.67840000  0.33550000  0.94890000  1.0
  O  O125  1  0.32160000  0.66450000  0.05110000  1.0
  O  O126  1  0.33550000  0.32160000  0.44890000  1.0
  O  O127  1  0.66450000  0.67840000  0.55110000  1.0
  O  O128  1  0.00000000  0.13370000  0.41750000  1.0
  O  O129  1  0.00000000  0.86630000  0.58250000  1.0
  O  O130  1  0.86630000  0.00000000  0.91750000  1.0
  O  O131  1  0.13370000  0.00000000  0.08250000  1.0
  O  O132  1  0.00000000  0.86630000  0.41750000  1.0
  O  O133  1  0.00000000  0.13370000  0.58250000  1.0
  O  O134  1  0.13370000  0.00000000  0.91750000  1.0
  O  O135  1  0.86630000  0.00000000  0.08250000  1.0
  O  O136  1  0.00000000  0.15240000  0.07020000  1.0
  O  O137  1  0.00000000  0.84760000  0.92980000  1.0
  O  O138  1  0.84760000  0.00000000  0.57020000  1.0
  O  O139  1  0.15240000  0.00000000  0.42980000  1.0
  O  O140  1  0.00000000  0.84760000  0.07020000  1.0
  O  O141  1  0.00000000  0.15240000  0.92980000  1.0
  O  O142  1  0.15240000  0.00000000  0.57020000  1.0
  O  O143  1  0.84760000  0.00000000  0.42980000  1.0
  O  O144  1  0.11950000  0.14510000  0.50000000  1.0
  O  O145  1  0.88050000  0.85490000  0.50000000  1.0
  O  O146  1  0.85490000  0.11950000  0.00000000  1.0
  O  O147  1  0.14510000  0.88050000  0.00000000  1.0
  O  O148  1  0.11950000  0.85490000  0.50000000  1.0
  O  O149  1  0.88050000  0.14510000  0.50000000  1.0
  O  O150  1  0.85490000  0.88050000  0.00000000  1.0
  O  O151  1  0.14510000  0.11950000  0.00000000  1.0
  O  O152  1  0.34070000  0.50000000  0.17920000  1.0
  O  O153  1  0.65930000  0.50000000  0.82080000  1.0
  O  O154  1  0.50000000  0.34070000  0.67920000  1.0
  O  O155  1  0.50000000  0.65930000  0.32080000  1.0
  O  O156  1  0.65930000  0.50000000  0.17920000  1.0
  O  O157  1  0.34070000  0.50000000  0.82080000  1.0
  O  O158  1  0.50000000  0.65930000  0.67920000  1.0
  O  O159  1  0.50000000  0.34070000  0.32080000  1.0
  O  O160  1  0.35300000  0.35300000  0.25000000  1.0
  O  O161  1  0.64700000  0.64700000  0.75000000  1.0
  O  O162  1  0.64700000  0.35300000  0.75000000  1.0
  O  O163  1  0.35300000  0.64700000  0.25000000  1.0
  O  O164  1  0.64700000  0.64700000  0.25000000  1.0
  O  O165  1  0.35300000  0.35300000  0.75000000  1.0
  O  O166  1  0.35300000  0.64700000  0.75000000  1.0
  O  O167  1  0.64700000  0.35300000  0.25000000  1.0
  O  O168  1  0.37260000  0.50000000  0.32050000  1.0
  O  O169  1  0.62740000  0.50000000  0.67950000  1.0
  O  O170  1  0.50000000  0.37260000  0.82050000  1.0
  O  O171  1  0.50000000  0.62740000  0.17950000  1.0
  O  O172  1  0.62740000  0.50000000  0.32050000  1.0
  O  O173  1  0.37260000  0.50000000  0.67950000  1.0
  O  O174  1  0.50000000  0.62740000  0.82050000  1.0
  O  O175  1  0.50000000  0.37260000  0.17950000  1.0
  O  O176  1  0.00000000  0.50000000  0.44270000  1.0
  O  O177  1  0.00000000  0.50000000  0.55730000  1.0
  O  O178  1  0.50000000  0.00000000  0.94270000  1.0
  O  O179  1  0.50000000  0.00000000  0.05730000  1.0
  O  O180  1  0.16850000  0.50000000  0.50000000  1.0
  O  O181  1  0.83150000  0.50000000  0.50000000  1.0
  O  O182  1  0.50000000  0.16850000  0.00000000  1.0
  O  O183  1  0.50000000  0.83150000  0.00000000  1.0
  O  O184  1  0.33260000  0.50000000  0.50000000  1.0
  O  O185  1  0.66740000  0.50000000  0.50000000  1.0
  O  O186  1  0.50000000  0.33260000  0.00000000  1.0
  O  O187  1  0.50000000  0.66740000  0.00000000  1.0
  O  O188  1  0.38410000  0.50000000  0.00000000  1.0
  O  O189  1  0.61590000  0.50000000  0.00000000  1.0
  O  O190  1  0.50000000  0.38410000  0.50000000  1.0
  O  O191  1  0.50000000  0.61590000  0.50000000  1.0
