# generated using pymatgen
data_SiO2
_symmetry_space_group_name_H-M   P4_2/mmc
_cell_length_a   12.87400000
_cell_length_b   12.87400000
_cell_length_c   25.67400000
_cell_angle_alpha   90.00000000
_cell_angle_beta   90.00000000
_cell_angle_gamma   90.00000000
_symmetry_Int_Tables_number   131
_chemical_formula_structural   SiO2
_chemical_formula_sum   'Si64 O128'
_cell_volume   4255.20557642
_cell_formula_units_Z   64
loop_
 _symmetry_equiv_pos_site_id
 _symmetry_equiv_pos_as_xyz
  1  'x, y, z'
  2  '-x, -y, -z'
  3  '-y, x, z+1/2'
  4  'y, -x, -z+1/2'
  5  '-x, -y, z'
  6  'x, y, -z'
  7  'y, -x, z+1/2'
  8  '-y, x, -z+1/2'
  9  'x, -y, -z'
  10  '-x, y, z'
  11  '-y, -x, -z+1/2'
  12  'y, x, z+1/2'
  13  '-x, y, -z'
  14  'x, -y, z'
  15  'y, x, -z+1/2'
  16  '-y, -x, z+1/2'
loop_
 _atom_site_type_symbol
 _atom_site_label
 _atom_site_symmetry_multiplicity
 _atom_site_fract_x
 _atom_site_fract_y
 _atom_site_fract_z
 _atom_site_occupancy
  Si  Si0  16  0.11680000  0.11850000  0.43880000  1
  Si  Si1  16  0.24940000  0.30790000  0.40400000  1
  Si  Si2  16  0.37740000  0.38240000  0.19030000  1
  Si  Si3  8  0.12480000  0.50000000  0.44120000  1
  Si  Si4  8  0.37520000  0.38230000  0.50000000  1
  O  O5  16  0.16370000  0.39800000  0.41060000  1
  O  O6  16  0.19450000  0.19590000  0.40870000  1
  O  O7  16  0.30400000  0.31640000  0.34780000  1
  O  O8  16  0.32160000  0.33550000  0.05110000  1
  O  O9  8  0.00000000  0.13370000  0.41750000  1
  O  O10  8  0.00000000  0.15240000  0.07020000  1
  O  O11  8  0.11950000  0.14510000  0.50000000  1
  O  O12  8  0.34070000  0.50000000  0.17920000  1
  O  O13  8  0.35300000  0.35300000  0.25000000  1
  O  O14  8  0.37260000  0.50000000  0.32050000  1
  O  O15  4  0.00000000  0.50000000  0.44270000  1
  O  O16  4  0.16850000  0.50000000  0.50000000  1
  O  O17  4  0.33260000  0.50000000  0.50000000  1
  O  O18  4  0.38410000  0.50000000  0.00000000  1
