# generated using pymatgen
data_SiO2
_symmetry_space_group_name_H-M   'P 1'
_cell_length_a   12.74110000
_cell_length_b   12.69890000
_cell_length_c   20.99910000
_cell_angle_alpha   90.00000000
_cell_angle_beta   96.29000000
_cell_angle_gamma   90.00000000
_symmetry_Int_Tables_number   1
_chemical_formula_structural   SiO2
_chemical_formula_sum   'Si56 O112'
_cell_volume   3377.15812611
_cell_formula_units_Z   56
loop_
 _symmetry_equiv_pos_site_id
 _symmetry_equiv_pos_as_xyz
  1  'x, y, z'
loop_
 _atom_site_type_symbol
 _atom_site_label
 _atom_site_symmetry_multiplicity
 _atom_site_fract_x
 _atom_site_fract_y
 _atom_site_fract_z
 _atom_site_occupancy
  Si  Si0  1  0.64670000  0.12070000  0.23710000  1.0
  Si  Si1  1  0.35330000  0.12070000  0.76290000  1.0
  Si  Si2  1  0.35330000  0.87930000  0.76290000  1.0
  Si  Si3  1  0.64670000  0.87930000  0.23710000  1.0
  Si  Si4  1  0.79550000  0.12070000  0.36510000  1.0
  Si  Si5  1  0.20450000  0.12070000  0.63490000  1.0
  Si  Si6  1  0.20450000  0.87930000  0.63490000  1.0
  Si  Si7  1  0.79550000  0.87930000  0.36510000  1.0
  Si  Si8  1  0.98660000  0.12120000  0.29030000  1.0
  Si  Si9  1  0.01340000  0.12120000  0.70970000  1.0
  Si  Si10  1  0.01340000  0.87880000  0.70970000  1.0
  Si  Si11  1  0.98660000  0.87880000  0.29030000  1.0
  Si  Si12  1  0.83870000  0.12110000  0.16230000  1.0
  Si  Si13  1  0.16130000  0.12110000  0.83770000  1.0
  Si  Si14  1  0.16130000  0.87890000  0.83770000  1.0
  Si  Si15  1  0.83870000  0.87890000  0.16230000  1.0
  Si  Si16  1  0.11830000  0.37880000  0.06210000  1.0
  Si  Si17  1  0.88170000  0.37880000  0.93790000  1.0
  Si  Si18  1  0.88170000  0.62120000  0.93790000  1.0
  Si  Si19  1  0.11830000  0.62120000  0.06210000  1.0
  Si  Si20  1  0.26970000  0.37890000  0.18720000  1.0
  Si  Si21  1  0.73030000  0.37890000  0.81280000  1.0
  Si  Si22  1  0.73030000  0.62110000  0.81280000  1.0
  Si  Si23  1  0.26970000  0.62110000  0.18720000  1.0
  Si  Si24  1  0.14590000  0.30590000  0.29760000  1.0
  Si  Si25  1  0.85410000  0.30590000  0.70240000  1.0
  Si  Si26  1  0.85410000  0.69410000  0.70240000  1.0
  Si  Si27  1  0.14590000  0.69410000  0.29760000  1.0
  Si  Si28  1  0.28660000  0.38010000  0.41790000  1.0
  Si  Si29  1  0.71340000  0.38010000  0.58210000  1.0
  Si  Si30  1  0.71340000  0.61990000  0.58210000  1.0
  Si  Si31  1  0.28660000  0.61990000  0.41790000  1.0
  Si  Si32  1  0.51180000  0.37990000  0.38120000  1.0
  Si  Si33  1  0.48820000  0.37990000  0.61880000  1.0
  Si  Si34  1  0.48820000  0.62010000  0.61880000  1.0
  Si  Si35  1  0.51180000  0.62010000  0.38120000  1.0
  Si  Si36  1  0.73320000  0.30790000  0.44390000  1.0
  Si  Si37  1  0.26680000  0.30790000  0.55610000  1.0
  Si  Si38  1  0.26680000  0.69210000  0.55610000  1.0
  Si  Si39  1  0.73320000  0.69210000  0.44390000  1.0
  Si  Si40  1  0.49530000  0.30820000  0.23980000  1.0
  Si  Si41  1  0.50470000  0.30820000  0.76020000  1.0
  Si  Si42  1  0.50470000  0.69180000  0.76020000  1.0
  Si  Si43  1  0.49530000  0.69180000  0.23980000  1.0
  Si  Si44  1  0.89560000  0.30710000  0.07840000  1.0
  Si  Si45  1  0.10440000  0.30710000  0.92160000  1.0
  Si  Si46  1  0.10440000  0.69290000  0.92160000  1.0
  Si  Si47  1  0.89560000  0.69290000  0.07840000  1.0
  Si  Si48  1  0.79000000  0.50000000  0.36460000  1.0
  Si  Si49  1  0.21000000  0.50000000  0.63540000  1.0
  Si  Si50  1  0.99140000  0.50000000  0.28490000  1.0
  Si  Si51  1  0.00860000  0.50000000  0.71510000  1.0
  Si  Si52  1  0.84740000  0.50000000  0.16200000  1.0
  Si  Si53  1  0.15260000  0.50000000  0.83800000  1.0
  Si  Si54  1  0.64590000  0.50000000  0.24160000  1.0
  Si  Si55  1  0.35410000  0.50000000  0.75840000  1.0
  O  O56  1  0.02190000  0.32000000  0.09080000  1.0
  O  O57  1  0.97810000  0.32000000  0.90920000  1.0
  O  O58  1  0.97810000  0.68000000  0.90920000  1.0
  O  O59  1  0.02190000  0.68000000  0.09080000  1.0
  O  O60  1  0.08750000  0.50000000  0.04730000  1.0
  O  O61  1  0.91250000  0.50000000  0.95270000  1.0
  O  O62  1  0.22250000  0.37380000  0.11290000  1.0
  O  O63  1  0.77750000  0.37380000  0.88710000  1.0
  O  O64  1  0.77750000  0.62620000  0.88710000  1.0
  O  O65  1  0.22250000  0.62620000  0.11290000  1.0
  O  O66  1  0.28010000  0.50000000  0.20970000  1.0
  O  O67  1  0.71990000  0.50000000  0.79030000  1.0
  O  O68  1  0.38410000  0.32370000  0.19640000  1.0
  O  O69  1  0.61590000  0.32370000  0.80360000  1.0
  O  O70  1  0.61590000  0.67630000  0.80360000  1.0
  O  O71  1  0.38410000  0.67630000  0.19640000  1.0
  O  O72  1  0.19110000  0.31750000  0.22930000  1.0
  O  O73  1  0.80890000  0.31750000  0.77070000  1.0
  O  O74  1  0.80890000  0.68250000  0.77070000  1.0
  O  O75  1  0.19110000  0.68250000  0.22930000  1.0
  O  O76  1  0.09160000  0.19210000  0.30250000  1.0
  O  O77  1  0.90840000  0.19210000  0.69750000  1.0
  O  O78  1  0.90840000  0.80790000  0.69750000  1.0
  O  O79  1  0.09160000  0.80790000  0.30250000  1.0
  O  O80  1  0.05980000  0.39640000  0.30510000  1.0
  O  O81  1  0.94020000  0.39640000  0.69490000  1.0
  O  O82  1  0.94020000  0.60360000  0.69490000  1.0
  O  O83  1  0.05980000  0.60360000  0.30510000  1.0
  O  O84  1  0.24130000  0.31730000  0.35410000  1.0
  O  O85  1  0.75870000  0.31730000  0.64590000  1.0
  O  O86  1  0.75870000  0.68270000  0.64590000  1.0
  O  O87  1  0.24130000  0.68270000  0.35410000  1.0
  O  O88  1  0.24740000  0.32360000  0.47970000  1.0
  O  O89  1  0.75260000  0.32360000  0.52030000  1.0
  O  O90  1  0.75260000  0.67640000  0.52030000  1.0
  O  O91  1  0.24740000  0.67640000  0.47970000  1.0
  O  O92  1  0.24530000  0.50000000  0.41370000  1.0
  O  O93  1  0.75470000  0.50000000  0.58630000  1.0
  O  O94  1  0.41370000  0.37940000  0.42350000  1.0
  O  O95  1  0.58630000  0.37940000  0.57650000  1.0
  O  O96  1  0.58630000  0.62060000  0.57650000  1.0
  O  O97  1  0.41370000  0.62060000  0.42350000  1.0
  O  O98  1  0.47860000  0.32030000  0.31440000  1.0
  O  O99  1  0.52140000  0.32030000  0.68560000  1.0
  O  O100  1  0.52140000  0.67970000  0.68560000  1.0
  O  O101  1  0.47860000  0.67970000  0.31440000  1.0
  O  O102  1  0.54420000  0.50000000  0.36820000  1.0
  O  O103  1  0.45580000  0.50000000  0.63180000  1.0
  O  O104  1  0.60920000  0.31870000  0.42010000  1.0
  O  O105  1  0.39080000  0.31870000  0.57990000  1.0
  O  O106  1  0.39080000  0.68130000  0.57990000  1.0
  O  O107  1  0.60920000  0.68130000  0.42010000  1.0
  O  O108  1  0.77430000  0.19330000  0.42530000  1.0
  O  O109  1  0.22570000  0.19330000  0.57470000  1.0
  O  O110  1  0.22570000  0.80670000  0.57470000  1.0
  O  O111  1  0.77430000  0.80670000  0.42530000  1.0
  O  O112  1  0.79710000  0.39660000  0.40920000  1.0
  O  O113  1  0.20290000  0.39660000  0.59080000  1.0
  O  O114  1  0.20290000  0.60340000  0.59080000  1.0
  O  O115  1  0.79710000  0.60340000  0.40920000  1.0
  O  O116  1  0.68110000  0.50000000  0.31770000  1.0
  O  O117  1  0.31890000  0.50000000  0.68230000  1.0
  O  O118  1  0.88730000  0.50000000  0.32190000  1.0
  O  O119  1  0.11270000  0.50000000  0.67810000  1.0
  O  O120  1  0.95640000  0.50000000  0.20890000  1.0
  O  O121  1  0.04360000  0.50000000  0.79110000  1.0
  O  O122  1  0.84020000  0.39650000  0.11760000  1.0
  O  O123  1  0.15980000  0.39650000  0.88240000  1.0
  O  O124  1  0.15980000  0.60350000  0.88240000  1.0
  O  O125  1  0.84020000  0.60350000  0.11760000  1.0
  O  O126  1  0.75010000  0.50000000  0.20470000  1.0
  O  O127  1  0.24990000  0.50000000  0.79530000  1.0
  O  O128  1  0.57720000  0.39660000  0.22130000  1.0
  O  O129  1  0.42280000  0.39660000  0.77870000  1.0
  O  O130  1  0.42280000  0.60340000  0.77870000  1.0
  O  O131  1  0.57720000  0.60340000  0.22130000  1.0
  O  O132  1  0.54290000  0.19380000  0.22660000  1.0
  O  O133  1  0.45710000  0.19380000  0.77340000  1.0
  O  O134  1  0.45710000  0.80620000  0.77340000  1.0
  O  O135  1  0.54290000  0.80620000  0.22660000  1.0
  O  O136  1  0.61450000  0.00000000  0.22170000  1.0
  O  O137  1  0.38550000  0.00000000  0.77830000  1.0
  O  O138  1  0.73210000  0.15790000  0.19050000  1.0
  O  O139  1  0.26790000  0.15790000  0.80950000  1.0
  O  O140  1  0.26790000  0.84210000  0.80950000  1.0
  O  O141  1  0.73210000  0.84210000  0.19050000  1.0
  O  O142  1  0.69690000  0.13020000  0.31060000  1.0
  O  O143  1  0.30310000  0.13020000  0.68940000  1.0
  O  O144  1  0.30310000  0.86980000  0.68940000  1.0
  O  O145  1  0.69690000  0.86980000  0.31060000  1.0
  O  O146  1  0.80920000  0.00000000  0.38790000  1.0
  O  O147  1  0.19080000  0.00000000  0.61210000  1.0
  O  O148  1  0.90140000  0.15940000  0.33670000  1.0
  O  O149  1  0.09860000  0.15940000  0.66330000  1.0
  O  O150  1  0.09860000  0.84060000  0.66330000  1.0
  O  O151  1  0.90140000  0.84060000  0.33670000  1.0
  O  O152  1  0.93730000  0.13240000  0.21680000  1.0
  O  O153  1  0.06270000  0.13240000  0.78320000  1.0
  O  O154  1  0.06270000  0.86760000  0.78320000  1.0
  O  O155  1  0.93730000  0.86760000  0.21680000  1.0
  O  O156  1  0.82720000  0.00000000  0.13990000  1.0
  O  O157  1  0.17280000  0.00000000  0.86010000  1.0
  O  O158  1  0.86010000  0.19310000  0.10190000  1.0
  O  O159  1  0.13990000  0.19310000  0.89810000  1.0
  O  O160  1  0.13990000  0.80690000  0.89810000  1.0
  O  O161  1  0.86010000  0.80690000  0.10190000  1.0
  O  O162  1  0.85830000  0.32090000  0.00310000  1.0
  O  O163  1  0.14170000  0.32090000  0.99690000  1.0
  O  O164  1  0.14170000  0.67910000  0.99690000  1.0
  O  O165  1  0.85830000  0.67910000  0.00310000  1.0
  O  O166  1  0.01680000  0.00000000  0.30550000  1.0
  O  O167  1  0.98320000  0.00000000  0.69450000  1.0
