# generated using pymatgen
data_SiO2
_symmetry_space_group_name_H-M   'P 1'
_cell_length_a   11.66200000
_cell_length_b   21.93000000
_cell_length_c   12.56600000
_cell_angle_alpha   90.00000000
_cell_angle_beta   90.00000000
_cell_angle_gamma   90.00000000
_symmetry_Int_Tables_number   1
_chemical_formula_structural   SiO2
_chemical_formula_sum   'Si56 O112'
_cell_volume   3213.72509614
_cell_formula_units_Z   56
loop_
 _symmetry_equiv_pos_site_id
 _symmetry_equiv_pos_as_xyz
  1  'x, y, z'
loop_
 _atom_site_type_symbol
 _atom_site_label
 _atom_site_symmetry_multiplicity
 _atom_site_fract_x
 _atom_site_fract_y
 _atom_site_fract_z
 _atom_site_occupancy
  Si  Si0  1  0.86720000  0.19590000  0.87880000  1.0
  Si  Si1  1  0.13280000  0.19590000  0.12120000  1.0
  Si  Si2  1  0.86720000  0.19590000  0.12120000  1.0
  Si  Si3  1  0.13280000  0.19590000  0.87880000  1.0
  Si  Si4  1  0.86940000  0.33540000  0.87510000  1.0
  Si  Si5  1  0.13060000  0.33540000  0.12490000  1.0
  Si  Si6  1  0.86940000  0.33540000  0.12490000  1.0
  Si  Si7  1  0.13060000  0.33540000  0.87510000  1.0
  Si  Si8  1  0.28560000  0.39090000  0.70000000  1.0
  Si  Si9  1  0.71440000  0.39090000  0.30000000  1.0
  Si  Si10  1  0.28560000  0.39090000  0.30000000  1.0
  Si  Si11  1  0.71440000  0.39090000  0.70000000  1.0
  Si  Si12  1  0.25030000  0.13850000  0.68430000  1.0
  Si  Si13  1  0.74970000  0.13850000  0.31570000  1.0
  Si  Si14  1  0.25030000  0.13850000  0.31570000  1.0
  Si  Si15  1  0.74970000  0.13850000  0.68430000  1.0
  Si  Si16  1  0.86880000  0.01440000  0.62190000  1.0
  Si  Si17  1  0.13120000  0.01440000  0.37810000  1.0
  Si  Si18  1  0.86880000  0.01440000  0.37810000  1.0
  Si  Si19  1  0.13120000  0.01440000  0.62190000  1.0
  Si  Si20  1  0.50000000  0.31740000  0.62230000  1.0
  Si  Si21  1  0.50000000  0.31740000  0.37770000  1.0
  Si  Si22  1  0.50000000  0.17080000  0.62220000  1.0
  Si  Si23  1  0.50000000  0.17080000  0.37780000  1.0
  Si  Si24  1  0.86830000  0.21330000  0.50000000  1.0
  Si  Si25  1  0.13170000  0.21330000  0.50000000  1.0
  Si  Si26  1  0.86830000  0.35980000  0.50000000  1.0
  Si  Si27  1  0.13170000  0.35980000  0.50000000  1.0
  Si  Si28  1  0.36720000  0.69590000  0.87880000  1.0
  Si  Si29  1  0.63280000  0.69590000  0.12120000  1.0
  Si  Si30  1  0.36720000  0.69590000  0.12120000  1.0
  Si  Si31  1  0.63280000  0.69590000  0.87880000  1.0
  Si  Si32  1  0.36940000  0.83540000  0.87510000  1.0
  Si  Si33  1  0.63060000  0.83540000  0.12490000  1.0
  Si  Si34  1  0.36940000  0.83540000  0.12490000  1.0
  Si  Si35  1  0.63060000  0.83540000  0.87510000  1.0
  Si  Si36  1  0.78560000  0.89090000  0.70000000  1.0
  Si  Si37  1  0.21440000  0.89090000  0.30000000  1.0
  Si  Si38  1  0.78560000  0.89090000  0.30000000  1.0
  Si  Si39  1  0.21440000  0.89090000  0.70000000  1.0
  Si  Si40  1  0.75030000  0.63850000  0.68430000  1.0
  Si  Si41  1  0.24970000  0.63850000  0.31570000  1.0
  Si  Si42  1  0.75030000  0.63850000  0.31570000  1.0
  Si  Si43  1  0.24970000  0.63850000  0.68430000  1.0
  Si  Si44  1  0.36880000  0.51440000  0.62190000  1.0
  Si  Si45  1  0.63120000  0.51440000  0.37810000  1.0
  Si  Si46  1  0.36880000  0.51440000  0.37810000  1.0
  Si  Si47  1  0.63120000  0.51440000  0.62190000  1.0
  Si  Si48  1  0.00000000  0.81740000  0.62230000  1.0
  Si  Si49  1  0.00000000  0.81740000  0.37770000  1.0
  Si  Si50  1  0.00000000  0.67080000  0.62220000  1.0
  Si  Si51  1  0.00000000  0.67080000  0.37780000  1.0
  Si  Si52  1  0.36830000  0.71330000  0.50000000  1.0
  Si  Si53  1  0.63170000  0.71330000  0.50000000  1.0
  Si  Si54  1  0.36830000  0.85980000  0.50000000  1.0
  Si  Si55  1  0.63170000  0.85980000  0.50000000  1.0
  O  O56  1  0.85320000  0.26540000  0.83940000  1.0
  O  O57  1  0.14680000  0.26540000  0.16060000  1.0
  O  O58  1  0.85320000  0.26540000  0.16060000  1.0
  O  O59  1  0.14680000  0.26540000  0.83940000  1.0
  O  O60  1  0.78090000  0.37760000  0.80980000  1.0
  O  O61  1  0.21910000  0.37760000  0.19020000  1.0
  O  O62  1  0.78090000  0.37760000  0.19020000  1.0
  O  O63  1  0.21910000  0.37760000  0.80980000  1.0
  O  O64  1  0.79350000  0.15110000  0.80380000  1.0
  O  O65  1  0.20650000  0.15110000  0.19620000  1.0
  O  O66  1  0.79350000  0.15110000  0.19620000  1.0
  O  O67  1  0.20650000  0.15110000  0.80380000  1.0
  O  O68  1  0.33870000  0.45860000  0.70050000  1.0
  O  O69  1  0.66130000  0.45860000  0.29950000  1.0
  O  O70  1  0.33870000  0.45860000  0.29950000  1.0
  O  O71  1  0.66130000  0.45860000  0.70050000  1.0
  O  O72  1  0.38720000  0.34230000  0.68210000  1.0
  O  O73  1  0.61280000  0.34230000  0.31790000  1.0
  O  O74  1  0.38720000  0.34230000  0.31790000  1.0
  O  O75  1  0.61280000  0.34230000  0.68210000  1.0
  O  O76  1  0.38770000  0.14490000  0.68140000  1.0
  O  O77  1  0.61230000  0.14490000  0.31860000  1.0
  O  O78  1  0.38770000  0.14490000  0.31860000  1.0
  O  O79  1  0.61230000  0.14490000  0.68140000  1.0
  O  O80  1  0.78500000  0.07080000  0.64750000  1.0
  O  O81  1  0.21500000  0.07080000  0.35250000  1.0
  O  O82  1  0.78500000  0.07080000  0.35250000  1.0
  O  O83  1  0.21500000  0.07080000  0.64750000  1.0
  O  O84  1  0.80510000  0.18800000  0.60490000  1.0
  O  O85  1  0.19490000  0.18800000  0.39510000  1.0
  O  O86  1  0.80510000  0.18800000  0.39510000  1.0
  O  O87  1  0.19490000  0.18800000  0.60490000  1.0
  O  O88  1  0.80570000  0.38620000  0.60440000  1.0
  O  O89  1  0.19430000  0.38620000  0.39560000  1.0
  O  O90  1  0.80570000  0.38620000  0.39560000  1.0
  O  O91  1  0.19430000  0.38620000  0.60440000  1.0
  O  O92  1  0.84150000  0.34170000  0.00000000  1.0
  O  O93  1  0.15850000  0.34170000  0.00000000  1.0
  O  O94  1  0.82360000  0.19020000  0.00000000  1.0
  O  O95  1  0.17640000  0.19020000  0.00000000  1.0
  O  O96  1  0.00000000  0.17620000  0.87260000  1.0
  O  O97  1  0.00000000  0.17620000  0.12740000  1.0
  O  O98  1  0.00000000  0.35580000  0.85310000  1.0
  O  O99  1  0.00000000  0.35580000  0.14690000  1.0
  O  O100  1  0.00000000  0.03490000  0.64020000  1.0
  O  O101  1  0.00000000  0.03490000  0.35980000  1.0
  O  O102  1  0.50000000  0.24410000  0.62690000  1.0
  O  O103  1  0.50000000  0.24410000  0.37310000  1.0
  O  O104  1  0.86270000  0.28650000  0.50000000  1.0
  O  O105  1  0.13730000  0.28650000  0.50000000  1.0
  O  O106  1  0.35190000  0.49370000  0.50000000  1.0
  O  O107  1  0.64810000  0.49370000  0.50000000  1.0
  O  O108  1  0.00000000  0.19130000  0.50000000  1.0
  O  O109  1  0.00000000  0.38170000  0.50000000  1.0
  O  O110  1  0.50000000  0.14870000  0.50000000  1.0
  O  O111  1  0.50000000  0.33940000  0.50000000  1.0
  O  O112  1  0.35320000  0.76540000  0.83940000  1.0
  O  O113  1  0.64680000  0.76540000  0.16060000  1.0
  O  O114  1  0.35320000  0.76540000  0.16060000  1.0
  O  O115  1  0.64680000  0.76540000  0.83940000  1.0
  O  O116  1  0.28090000  0.87760000  0.80980000  1.0
  O  O117  1  0.71910000  0.87760000  0.19020000  1.0
  O  O118  1  0.28090000  0.87760000  0.19020000  1.0
  O  O119  1  0.71910000  0.87760000  0.80980000  1.0
  O  O120  1  0.29350000  0.65110000  0.80380000  1.0
  O  O121  1  0.70650000  0.65110000  0.19620000  1.0
  O  O122  1  0.29350000  0.65110000  0.19620000  1.0
  O  O123  1  0.70650000  0.65110000  0.80380000  1.0
  O  O124  1  0.83870000  0.95860000  0.70050000  1.0
  O  O125  1  0.16130000  0.95860000  0.29950000  1.0
  O  O126  1  0.83870000  0.95860000  0.29950000  1.0
  O  O127  1  0.16130000  0.95860000  0.70050000  1.0
  O  O128  1  0.88720000  0.84230000  0.68210000  1.0
  O  O129  1  0.11280000  0.84230000  0.31790000  1.0
  O  O130  1  0.88720000  0.84230000  0.31790000  1.0
  O  O131  1  0.11280000  0.84230000  0.68210000  1.0
  O  O132  1  0.88770000  0.64490000  0.68140000  1.0
  O  O133  1  0.11230000  0.64490000  0.31860000  1.0
  O  O134  1  0.88770000  0.64490000  0.31860000  1.0
  O  O135  1  0.11230000  0.64490000  0.68140000  1.0
  O  O136  1  0.28500000  0.57080000  0.64750000  1.0
  O  O137  1  0.71500000  0.57080000  0.35250000  1.0
  O  O138  1  0.28500000  0.57080000  0.35250000  1.0
  O  O139  1  0.71500000  0.57080000  0.64750000  1.0
  O  O140  1  0.30510000  0.68800000  0.60490000  1.0
  O  O141  1  0.69490000  0.68800000  0.39510000  1.0
  O  O142  1  0.30510000  0.68800000  0.39510000  1.0
  O  O143  1  0.69490000  0.68800000  0.60490000  1.0
  O  O144  1  0.30570000  0.88620000  0.60440000  1.0
  O  O145  1  0.69430000  0.88620000  0.39560000  1.0
  O  O146  1  0.30570000  0.88620000  0.39560000  1.0
  O  O147  1  0.69430000  0.88620000  0.60440000  1.0
  O  O148  1  0.34150000  0.84170000  0.00000000  1.0
  O  O149  1  0.65850000  0.84170000  0.00000000  1.0
  O  O150  1  0.32360000  0.69020000  0.00000000  1.0
  O  O151  1  0.67640000  0.69020000  0.00000000  1.0
  O  O152  1  0.50000000  0.67620000  0.87260000  1.0
  O  O153  1  0.50000000  0.67620000  0.12740000  1.0
  O  O154  1  0.50000000  0.85580000  0.85310000  1.0
  O  O155  1  0.50000000  0.85580000  0.14690000  1.0
  O  O156  1  0.50000000  0.53490000  0.64020000  1.0
  O  O157  1  0.50000000  0.53490000  0.35980000  1.0
  O  O158  1  0.00000000  0.74410000  0.62690000  1.0
  O  O159  1  0.00000000  0.74410000  0.37310000  1.0
  O  O160  1  0.36270000  0.78650000  0.50000000  1.0
  O  O161  1  0.63730000  0.78650000  0.50000000  1.0
  O  O162  1  0.85190000  0.99370000  0.50000000  1.0
  O  O163  1  0.14810000  0.99370000  0.50000000  1.0
  O  O164  1  0.50000000  0.69130000  0.50000000  1.0
  O  O165  1  0.50000000  0.88170000  0.50000000  1.0
  O  O166  1  0.00000000  0.64870000  0.50000000  1.0
  O  O167  1  0.00000000  0.83940000  0.50000000  1.0
