# generated using pymatgen
data_SiO2
_symmetry_space_group_name_H-M   Amm2
_cell_length_a   12.56600000
_cell_length_b   11.66200000
_cell_length_c   21.93000000
_cell_angle_alpha   90.00000000
_cell_angle_beta   90.00000000
_cell_angle_gamma   90.00000000
_symmetry_Int_Tables_number   38
_chemical_formula_structural   SiO2
_chemical_formula_sum   'Si56 O112'
_cell_volume   3213.72509556
_cell_formula_units_Z   56
loop_
 _symmetry_equiv_pos_site_id
 _symmetry_equiv_pos_as_xyz
  1  'x, y, z'
  2  '-x, -y, z'
  3  '-x, y, z'
  4  'x, -y, z'
  5  'x, y+1/2, z+1/2'
  6  '-x, -y+1/2, z+1/2'
  7  '-x, y+1/2, z+1/2'
  8  'x, -y+1/2, z+1/2'
loop_
 _atom_site_type_symbol
 _atom_site_label
 _atom_site_symmetry_multiplicity
 _atom_site_fract_x
 _atom_site_fract_y
 _atom_site_fract_z
 _atom_site_occupancy
  Si  Si0  8  0.12120000  0.13280000  0.19590000  1
  Si  Si1  8  0.12490000  0.13060000  0.33540000  1
  Si  Si2  8  0.30000000  0.21440000  0.89090000  1
  Si  Si3  8  0.31570000  0.24970000  0.63850000  1
  Si  Si4  8  0.37810000  0.13120000  0.01440000  1
  Si  Si5  4  0.37770000  0.00000000  0.81740000  1
  Si  Si6  4  0.37780000  0.00000000  0.67080000  1
  Si  Si7  4  0.50000000  0.13170000  0.21330000  1
  Si  Si8  4  0.50000000  0.13170000  0.35980000  1
  O  O9  8  0.16060000  0.14680000  0.26540000  1
  O  O10  8  0.19020000  0.21910000  0.37760000  1
  O  O11  8  0.19620000  0.20650000  0.15110000  1
  O  O12  8  0.29950000  0.16130000  0.95860000  1
  O  O13  8  0.31790000  0.11280000  0.84230000  1
  O  O14  8  0.31860000  0.11230000  0.64490000  1
  O  O15  8  0.35250000  0.21500000  0.07080000  1
  O  O16  8  0.39510000  0.19490000  0.18800000  1
  O  O17  8  0.39560000  0.19430000  0.38620000  1
  O  O18  4  0.00000000  0.15850000  0.34170000  1
  O  O19  4  0.00000000  0.17640000  0.19020000  1
  O  O20  4  0.12740000  0.00000000  0.17620000  1
  O  O21  4  0.14690000  0.00000000  0.35580000  1
  O  O22  4  0.35980000  0.00000000  0.03490000  1
  O  O23  4  0.37310000  0.00000000  0.74410000  1
  O  O24  4  0.50000000  0.13730000  0.28650000  1
  O  O25  4  0.50000000  0.14810000  0.99370000  1
  O  O26  2  0.50000000  0.00000000  0.19130000  1
  O  O27  2  0.50000000  0.00000000  0.38170000  1
  O  O28  2  0.50000000  0.00000000  0.64870000  1
  O  O29  2  0.50000000  0.00000000  0.83940000  1
