# generated using pymatgen
data_Si54O109
_symmetry_space_group_name_H-M   P-1
_cell_length_a   12.53990000
_cell_length_b   14.25019965
_cell_length_c   20.29262143
_cell_angle_alpha   87.10653118
_cell_angle_beta   77.87713516
_cell_angle_gamma   72.59900137
_symmetry_Int_Tables_number   2
_chemical_formula_structural   Si54O109
_chemical_formula_sum   'Si54 O109'
_cell_volume   3382.79798014
_cell_formula_units_Z   1
loop_
 _symmetry_equiv_pos_site_id
 _symmetry_equiv_pos_as_xyz
  1  'x, y, z'
  2  '-x, -y, -z'
loop_
 _atom_site_type_symbol
 _atom_site_label
 _atom_site_symmetry_multiplicity
 _atom_site_fract_x
 _atom_site_fract_y
 _atom_site_fract_z
 _atom_site_occupancy
  Si  Si0  2  0.05735000  0.53965000  0.15287000  1
  Si  Si1  2  0.09844000  0.71632000  0.06908000  1
  Si  Si2  2  0.10165000  0.47544000  0.29803000  1
  Si  Si3  2  0.10190000  0.65362000  0.92310000  1
  Si  Si4  2  0.10875000  0.65734000  0.50956000  1
  Si  Si5  2  0.10906000  0.25250000  0.31039000  1
  Si  Si6  2  0.10940000  0.07664000  0.09116000  1
  Si  Si7  2  0.11319000  0.00268000  0.52414000  1
  Si  Si8  2  0.13363000  0.48339000  0.60786000  1
  Si  Si9  2  0.13865000  0.19772000  0.45639000  1
  Si  Si10  2  0.14057000  0.14059000  0.94267000  1
  Si  Si11  2  0.14226000  0.82179000  0.83172000  1
  Si  Si12  2  0.14459000  0.34140000  0.07315000  1
  Si  Si13  2  0.14677000  0.74636000  0.68892000  1
  Si  Si14  2  0.18927000  0.45488000  0.84330000  1
  Si  Si15  2  0.24206000  0.85895000  0.04591000  1
  Si  Si16  2  0.24291000  0.51386000  0.38987000  1
  Si  Si17  2  0.24310000  0.17316000  0.16553000  1
  Si  Si18  2  0.24581000  0.79108333  0.54225000  1
  Si  Si19  2  0.26845000  0.33910000  0.48678000  1
  Si  Si20  2  0.27086000  0.92289000  0.89847000  1
  Si  Si21  2  0.28653000  0.52247000  0.69749000  1
  Si  Si22  2  0.29101000  0.27731000  0.92742000  1
  Si  Si23  2  0.47891000  0.52560000  0.39421000  1
  Si  Si24  2  0.48234000  0.86332000  0.05179000  1
  Si  Si25  2  0.48917000  0.06778000  0.09973000  1
  Si  Si26  2  0.49243000  0.65861000  0.50713000  1
  O  O27  2  0.01363000  0.26453000  0.49196000  1
  O  O28  2  0.02027000  0.89385000  0.86724000  1
  O  O29  2  0.02225000  0.46884000  0.65821000  1
  O  O30  2  0.02273000  0.73496000  0.68967000  1
  O  O31  2  0.02535000  0.20322000  0.91896000  1
  O  O32  2  0.03412000  0.30680000  0.07155000  1
  O  O33  2  0.07996000  0.42840000  0.82896000  1
  O  O34  2  0.08353000  0.02516000  0.60394000  1
  O  O35  2  0.09926000  0.63362000  0.12619000  1
  O  O36  2  0.10269000  0.59197000  0.57652000  1
  O  O37  2  0.10387000  0.45570000  0.09499000  1
  O  O38  2  0.10632000  0.49744000  0.21912000  1
  O  O39  2  0.11752000  0.14082000  0.02374000  1
  O  O40  2  0.12923000  0.35888000  0.31008000  1
  O  O41  2  0.12943000  0.66575000  0.99566000  1
  O  O42  2  0.14275000  0.80998000  0.75321000  1
  O  O43  2  0.14476000  0.19480000  0.37646000  1
  O  O44  2  0.14492000  0.58673000  0.44414000  1
  O  O45  2  0.14810000  0.53947000  0.90061000  1
  O  O46  2  0.14826000  0.96153000  0.07184000  1
  O  O47  2  0.16087000  0.08746000  0.48478000  1
  O  O48  2  0.16281000  0.71650000  0.86787000  1
  O  O49  2  0.17610000  0.40240000  0.54809000  1
  O  O50  2  0.17829000  0.02917000  0.91498000  1
  O  O51  2  0.18794000  0.80084000  0.62123000  1
  O  O52  2  0.18938000  0.19087000  0.24474000  1
  O  O53  2  0.19115000  0.09698000  0.13671000  1
  O  O54  2  0.19310000  0.76934000  0.07463000  1
  O  O55  2  0.19659000  0.51369000  0.32160000  1
  O  O56  2  0.20203000  0.71503000  0.50689000  1
  O  O57  2  0.20892000  0.89769000  0.50855000  1
  O  O58  2  0.21322000  0.27598000  0.12655000  1
  O  O59  2  0.22572000  0.32848000  0.99942000  1
  O  O60  2  0.23256000  0.46997000  0.65005000  1
  O  O61  2  0.23381000  0.24317000  0.47231000  1
  O  O62  2  0.23802000  0.63986000  0.69099000  1
  O  O63  2  0.24039000  0.19032000  0.91392000  1
  O  O64  2  0.24042000  0.86924000  0.83995000  1
  O  O65  2  0.25431000  0.49217000  0.77489000  1
  O  O66  2  0.26864000  0.85597000  0.96481000  1
  O  O67  2  0.27200000  0.40433000  0.41965000  1
  O  O68  2  0.27409000  0.35786000  0.86896000  1
  O  O69  2  0.35587000  0.54946000  0.37424000  1
  O  O70  2  0.35707000  0.84912000  0.07263000  1
  O  O71  2  0.37958000  0.12691000  0.15436000  1
  O  O72  2  0.38263000  0.75141000  0.53254000  1
  O  O73  2  0.39341000  0.30764000  0.50488000  1
  O  O74  2  0.39653000  0.93551000  0.87472000  1
  O  O75  2  0.42332000  0.48912000  0.67319000  1
  O  O76  2  0.42511000  0.23278000  0.92750000  1
  O  O77  2  0.48143000  0.61604000  0.43767000  1
  O  O78  2  0.48486000  0.95737000  0.09140000  1
  O  O79  2  0.48757000  0.12224000  0.02837000  1
  O  O80  2  0.49826000  0.57401000  0.56300000  1
  O  O81  1  0.00000000  0.00000000  0.50000000  1
