# generated using pymatgen
data_Si54O109
_symmetry_space_group_name_H-M   'P 1'
_cell_length_a   12.53990000
_cell_length_b   14.25019965
_cell_length_c   20.29262143
_cell_angle_alpha   87.10653118
_cell_angle_beta   102.12286484
_cell_angle_gamma   107.40099863
_symmetry_Int_Tables_number   1
_chemical_formula_structural   Si54O109
_chemical_formula_sum   'Si54 O109'
_cell_volume   3382.79798017
_cell_formula_units_Z   1
loop_
 _symmetry_equiv_pos_site_id
 _symmetry_equiv_pos_as_xyz
  1  'x, y, z'
loop_
 _atom_site_type_symbol
 _atom_site_label
 _atom_site_symmetry_multiplicity
 _atom_site_fract_x
 _atom_site_fract_y
 _atom_site_fract_z
 _atom_site_occupancy
  Si  Si0  1  0.05735000  0.46035000  0.84713000  1.0
  Si  Si1  1  0.94265000  0.53965000  0.15287000  1.0
  Si  Si2  1  0.09844000  0.28368000  0.93092000  1.0
  Si  Si3  1  0.90156000  0.71632000  0.06908000  1.0
  Si  Si4  1  0.10165000  0.52456000  0.70197000  1.0
  Si  Si5  1  0.89835000  0.47544000  0.29803000  1.0
  Si  Si6  1  0.10190000  0.34638000  0.07690000  1.0
  Si  Si7  1  0.89810000  0.65362000  0.92310000  1.0
  Si  Si8  1  0.10875000  0.34266000  0.49044000  1.0
  Si  Si9  1  0.89125000  0.65734000  0.50956000  1.0
  Si  Si10  1  0.10906000  0.74750000  0.68961000  1.0
  Si  Si11  1  0.89094000  0.25250000  0.31039000  1.0
  Si  Si12  1  0.10940000  0.92336000  0.90884000  1.0
  Si  Si13  1  0.89060000  0.07664000  0.09116000  1.0
  Si  Si14  1  0.11319000  0.99732000  0.47586000  1.0
  Si  Si15  1  0.88681000  0.00268000  0.52414000  1.0
  Si  Si16  1  0.13363000  0.51661000  0.39214000  1.0
  Si  Si17  1  0.86637000  0.48339000  0.60786000  1.0
  Si  Si18  1  0.13865000  0.80228000  0.54361000  1.0
  Si  Si19  1  0.86135000  0.19772000  0.45639000  1.0
  Si  Si20  1  0.14057000  0.85941000  0.05733000  1.0
  Si  Si21  1  0.85943000  0.14059000  0.94267000  1.0
  Si  Si22  1  0.14226000  0.17821000  0.16828000  1.0
  Si  Si23  1  0.85774000  0.82179000  0.83172000  1.0
  Si  Si24  1  0.14459000  0.65860000  0.92685000  1.0
  Si  Si25  1  0.85541000  0.34140000  0.07315000  1.0
  Si  Si26  1  0.14677000  0.25364000  0.31108000  1.0
  Si  Si27  1  0.85323000  0.74636000  0.68892000  1.0
  Si  Si28  1  0.18927000  0.54512000  0.15670000  1.0
  Si  Si29  1  0.81073000  0.45488000  0.84330000  1.0
  Si  Si30  1  0.24206000  0.14105000  0.95409000  1.0
  Si  Si31  1  0.75794000  0.85895000  0.04591000  1.0
  Si  Si32  1  0.24291000  0.48614000  0.61013000  1.0
  Si  Si33  1  0.75709000  0.51386000  0.38987000  1.0
  Si  Si34  1  0.24310000  0.82684000  0.83447000  1.0
  Si  Si35  1  0.75690000  0.17316000  0.16553000  1.0
  Si  Si36  1  0.24581000  0.20891667  0.45775000  1.0
  Si  Si37  1  0.75419000  0.79108333  0.54225000  1.0
  Si  Si38  1  0.26845000  0.66090000  0.51322000  1.0
  Si  Si39  1  0.73155000  0.33910000  0.48678000  1.0
  Si  Si40  1  0.27086000  0.07711000  0.10153000  1.0
  Si  Si41  1  0.72914000  0.92289000  0.89847000  1.0
  Si  Si42  1  0.28653000  0.47753000  0.30251000  1.0
  Si  Si43  1  0.71347000  0.52247000  0.69749000  1.0
  Si  Si44  1  0.29101000  0.72269000  0.07258000  1.0
  Si  Si45  1  0.70899000  0.27731000  0.92742000  1.0
  Si  Si46  1  0.47891000  0.47440000  0.60579000  1.0
  Si  Si47  1  0.52109000  0.52560000  0.39421000  1.0
  Si  Si48  1  0.48234000  0.13668000  0.94821000  1.0
  Si  Si49  1  0.51766000  0.86332000  0.05179000  1.0
  Si  Si50  1  0.48917000  0.93222000  0.90027000  1.0
  Si  Si51  1  0.51083000  0.06778000  0.09973000  1.0
  Si  Si52  1  0.49243000  0.34139000  0.49287000  1.0
  Si  Si53  1  0.50757000  0.65861000  0.50713000  1.0
  O  O54  1  0.01363000  0.73547000  0.50804000  1.0
  O  O55  1  0.98637000  0.26453000  0.49196000  1.0
  O  O56  1  0.02027000  0.10615000  0.13276000  1.0
  O  O57  1  0.97973000  0.89385000  0.86724000  1.0
  O  O58  1  0.02225000  0.53116000  0.34179000  1.0
  O  O59  1  0.97775000  0.46884000  0.65821000  1.0
  O  O60  1  0.02273000  0.26504000  0.31033000  1.0
  O  O61  1  0.97727000  0.73496000  0.68967000  1.0
  O  O62  1  0.02535000  0.79678000  0.08104000  1.0
  O  O63  1  0.97465000  0.20322000  0.91896000  1.0
  O  O64  1  0.03412000  0.69320000  0.92845000  1.0
  O  O65  1  0.96588000  0.30680000  0.07155000  1.0
  O  O66  1  0.07996000  0.57160000  0.17104000  1.0
  O  O67  1  0.92004000  0.42840000  0.82896000  1.0
  O  O68  1  0.08353000  0.97484000  0.39606000  1.0
  O  O69  1  0.91647000  0.02516000  0.60394000  1.0
  O  O70  1  0.09926000  0.36638000  0.87381000  1.0
  O  O71  1  0.90074000  0.63362000  0.12619000  1.0
  O  O72  1  0.10269000  0.40803000  0.42348000  1.0
  O  O73  1  0.89731000  0.59197000  0.57652000  1.0
  O  O74  1  0.10387000  0.54430000  0.90501000  1.0
  O  O75  1  0.89613000  0.45570000  0.09499000  1.0
  O  O76  1  0.10632000  0.50256000  0.78088000  1.0
  O  O77  1  0.89368000  0.49744000  0.21912000  1.0
  O  O78  1  0.11752000  0.85918000  0.97626000  1.0
  O  O79  1  0.88248000  0.14082000  0.02374000  1.0
  O  O80  1  0.12923000  0.64112000  0.68992000  1.0
  O  O81  1  0.87077000  0.35888000  0.31008000  1.0
  O  O82  1  0.12943000  0.33425000  0.00434000  1.0
  O  O83  1  0.87057000  0.66575000  0.99566000  1.0
  O  O84  1  0.14275000  0.19002000  0.24679000  1.0
  O  O85  1  0.85725000  0.80998000  0.75321000  1.0
  O  O86  1  0.14476000  0.80520000  0.62354000  1.0
  O  O87  1  0.85524000  0.19480000  0.37646000  1.0
  O  O88  1  0.14492000  0.41327000  0.55586000  1.0
  O  O89  1  0.85508000  0.58673000  0.44414000  1.0
  O  O90  1  0.14810000  0.46053000  0.09939000  1.0
  O  O91  1  0.85190000  0.53947000  0.90061000  1.0
  O  O92  1  0.14826000  0.03847000  0.92816000  1.0
  O  O93  1  0.85174000  0.96153000  0.07184000  1.0
  O  O94  1  0.16087000  0.91254000  0.51522000  1.0
  O  O95  1  0.83913000  0.08746000  0.48478000  1.0
  O  O96  1  0.16281000  0.28350000  0.13213000  1.0
  O  O97  1  0.83719000  0.71650000  0.86787000  1.0
  O  O98  1  0.17610000  0.59760000  0.45191000  1.0
  O  O99  1  0.82390000  0.40240000  0.54809000  1.0
  O  O100  1  0.17829000  0.97083000  0.08502000  1.0
  O  O101  1  0.82171000  0.02917000  0.91498000  1.0
  O  O102  1  0.18794000  0.19916000  0.37877000  1.0
  O  O103  1  0.81206000  0.80084000  0.62123000  1.0
  O  O104  1  0.18938000  0.80913000  0.75526000  1.0
  O  O105  1  0.81062000  0.19087000  0.24474000  1.0
  O  O106  1  0.19115000  0.90302000  0.86329000  1.0
  O  O107  1  0.80885000  0.09698000  0.13671000  1.0
  O  O108  1  0.19310000  0.23066000  0.92537000  1.0
  O  O109  1  0.80690000  0.76934000  0.07463000  1.0
  O  O110  1  0.19659000  0.48631000  0.67840000  1.0
  O  O111  1  0.80341000  0.51369000  0.32160000  1.0
  O  O112  1  0.20203000  0.28497000  0.49311000  1.0
  O  O113  1  0.79797000  0.71503000  0.50689000  1.0
  O  O114  1  0.20892000  0.10231000  0.49145000  1.0
  O  O115  1  0.79108000  0.89769000  0.50855000  1.0
  O  O116  1  0.21322000  0.72402000  0.87345000  1.0
  O  O117  1  0.78678000  0.27598000  0.12655000  1.0
  O  O118  1  0.22572000  0.67152000  0.00058000  1.0
  O  O119  1  0.77428000  0.32848000  0.99942000  1.0
  O  O120  1  0.23256000  0.53003000  0.34995000  1.0
  O  O121  1  0.76744000  0.46997000  0.65005000  1.0
  O  O122  1  0.23381000  0.75683000  0.52769000  1.0
  O  O123  1  0.76619000  0.24317000  0.47231000  1.0
  O  O124  1  0.23802000  0.36014000  0.30901000  1.0
  O  O125  1  0.76198000  0.63986000  0.69099000  1.0
  O  O126  1  0.24039000  0.80968000  0.08608000  1.0
  O  O127  1  0.75961000  0.19032000  0.91392000  1.0
  O  O128  1  0.24042000  0.13076000  0.16005000  1.0
  O  O129  1  0.75958000  0.86924000  0.83995000  1.0
  O  O130  1  0.25431000  0.50783000  0.22511000  1.0
  O  O131  1  0.74569000  0.49217000  0.77489000  1.0
  O  O132  1  0.26864000  0.14403000  0.03519000  1.0
  O  O133  1  0.73136000  0.85597000  0.96481000  1.0
  O  O134  1  0.27200000  0.59567000  0.58035000  1.0
  O  O135  1  0.72800000  0.40433000  0.41965000  1.0
  O  O136  1  0.27409000  0.64214000  0.13104000  1.0
  O  O137  1  0.72591000  0.35786000  0.86896000  1.0
  O  O138  1  0.35587000  0.45054000  0.62576000  1.0
  O  O139  1  0.64413000  0.54946000  0.37424000  1.0
  O  O140  1  0.35707000  0.15088000  0.92737000  1.0
  O  O141  1  0.64293000  0.84912000  0.07263000  1.0
  O  O142  1  0.37958000  0.87309000  0.84564000  1.0
  O  O143  1  0.62042000  0.12691000  0.15436000  1.0
  O  O144  1  0.38263000  0.24859000  0.46746000  1.0
  O  O145  1  0.61737000  0.75141000  0.53254000  1.0
  O  O146  1  0.39341000  0.69236000  0.49512000  1.0
  O  O147  1  0.60659000  0.30764000  0.50488000  1.0
  O  O148  1  0.39653000  0.06449000  0.12528000  1.0
  O  O149  1  0.60347000  0.93551000  0.87472000  1.0
  O  O150  1  0.42332000  0.51088000  0.32681000  1.0
  O  O151  1  0.57668000  0.48912000  0.67319000  1.0
  O  O152  1  0.42511000  0.76722000  0.07250000  1.0
  O  O153  1  0.57489000  0.23278000  0.92750000  1.0
  O  O154  1  0.48143000  0.38396000  0.56233000  1.0
  O  O155  1  0.51857000  0.61604000  0.43767000  1.0
  O  O156  1  0.48486000  0.04263000  0.90860000  1.0
  O  O157  1  0.51514000  0.95737000  0.09140000  1.0
  O  O158  1  0.48757000  0.87776000  0.97163000  1.0
  O  O159  1  0.51243000  0.12224000  0.02837000  1.0
  O  O160  1  0.49826000  0.42599000  0.43700000  1.0
  O  O161  1  0.50174000  0.57401000  0.56300000  1.0
  O  O162  1  0.00000000  0.00000000  0.50000000  1.0
