# generated using pymatgen
data_SiO2
_symmetry_space_group_name_H-M   'P 1'
_cell_length_a   11.67300000
_cell_length_b   21.96900001
_cell_length_c   25.17000000
_cell_angle_alpha   90.00000000
_cell_angle_beta   90.00000000
_cell_angle_gamma   90.00000000
_symmetry_Int_Tables_number   1
_chemical_formula_structural   SiO2
_chemical_formula_sum   'Si112 O224'
_cell_volume   6454.69893114
_cell_formula_units_Z   112
loop_
 _symmetry_equiv_pos_site_id
 _symmetry_equiv_pos_as_xyz
  1  'x, y, z'
loop_
 _atom_site_type_symbol
 _atom_site_label
 _atom_site_symmetry_multiplicity
 _atom_site_fract_x
 _atom_site_fract_y
 _atom_site_fract_z
 _atom_site_occupancy
  Si  Si0  1  0.13140000  0.42950000  0.06180000  1.0
  Si  Si1  1  0.36860000  0.07050000  0.93820000  1.0
  Si  Si2  1  0.36860000  0.07050000  0.56180000  1.0
  Si  Si3  1  0.13140000  0.42950000  0.43820000  1.0
  Si  Si4  1  0.63140000  0.07050000  0.93820000  1.0
  Si  Si5  1  0.86860000  0.42950000  0.06180000  1.0
  Si  Si6  1  0.86860000  0.42950000  0.43820000  1.0
  Si  Si7  1  0.63140000  0.07050000  0.56180000  1.0
  Si  Si8  1  0.13150000  0.43090000  0.56170000  1.0
  Si  Si9  1  0.36850000  0.06910000  0.43830000  1.0
  Si  Si10  1  0.36850000  0.06910000  0.06170000  1.0
  Si  Si11  1  0.13150000  0.43090000  0.93830000  1.0
  Si  Si12  1  0.63150000  0.06910000  0.43830000  1.0
  Si  Si13  1  0.86850000  0.43090000  0.56170000  1.0
  Si  Si14  1  0.86850000  0.43090000  0.93830000  1.0
  Si  Si15  1  0.63150000  0.06910000  0.06170000  1.0
  Si  Si16  1  0.13150000  0.24910000  0.68900000  1.0
  Si  Si17  1  0.36850000  0.25090000  0.31100000  1.0
  Si  Si18  1  0.36850000  0.25090000  0.18900000  1.0
  Si  Si19  1  0.13150000  0.24910000  0.81100000  1.0
  Si  Si20  1  0.63150000  0.25090000  0.31100000  1.0
  Si  Si21  1  0.86850000  0.24910000  0.68900000  1.0
  Si  Si22  1  0.86850000  0.24910000  0.81100000  1.0
  Si  Si23  1  0.63150000  0.25090000  0.18900000  1.0
  Si  Si24  1  0.71460000  0.37470000  0.15020000  1.0
  Si  Si25  1  0.78540000  0.12530000  0.84980000  1.0
  Si  Si26  1  0.78540000  0.12530000  0.65020000  1.0
  Si  Si27  1  0.71460000  0.37470000  0.34980000  1.0
  Si  Si28  1  0.21460000  0.12530000  0.84980000  1.0
  Si  Si29  1  0.28540000  0.37470000  0.15020000  1.0
  Si  Si30  1  0.28540000  0.37470000  0.34980000  1.0
  Si  Si31  1  0.21460000  0.12530000  0.65020000  1.0
  Si  Si32  1  0.24940000  0.12670000  0.15760000  1.0
  Si  Si33  1  0.25060000  0.37330000  0.84240000  1.0
  Si  Si34  1  0.25060000  0.37330000  0.65760000  1.0
  Si  Si35  1  0.24940000  0.12670000  0.34240000  1.0
  Si  Si36  1  0.74940000  0.37330000  0.84240000  1.0
  Si  Si37  1  0.75060000  0.12670000  0.15760000  1.0
  Si  Si38  1  0.75060000  0.12670000  0.34240000  1.0
  Si  Si39  1  0.74940000  0.37330000  0.65760000  1.0
  Si  Si40  1  0.00000000  0.05210000  0.68880000  1.0
  Si  Si41  1  0.50000000  0.44790000  0.31120000  1.0
  Si  Si42  1  0.50000000  0.44790000  0.18880000  1.0
  Si  Si43  1  0.00000000  0.05210000  0.81120000  1.0
  Si  Si44  1  0.00000000  0.09420000  0.18890000  1.0
  Si  Si45  1  0.50000000  0.40580000  0.81110000  1.0
  Si  Si46  1  0.50000000  0.40580000  0.68890000  1.0
  Si  Si47  1  0.00000000  0.09420000  0.31110000  1.0
  Si  Si48  1  0.13170000  0.44740000  0.75000000  1.0
  Si  Si49  1  0.36830000  0.05260000  0.25000000  1.0
  Si  Si50  1  0.63170000  0.05260000  0.25000000  1.0
  Si  Si51  1  0.86830000  0.44740000  0.75000000  1.0
  Si  Si52  1  0.13170000  0.40640000  0.25000000  1.0
  Si  Si53  1  0.36830000  0.09360000  0.75000000  1.0
  Si  Si54  1  0.63170000  0.09360000  0.75000000  1.0
  Si  Si55  1  0.86830000  0.40640000  0.25000000  1.0
  Si  Si56  1  0.63140000  0.92950000  0.06180000  1.0
  Si  Si57  1  0.86860000  0.57050000  0.93820000  1.0
  Si  Si58  1  0.86860000  0.57050000  0.56180000  1.0
  Si  Si59  1  0.63140000  0.92950000  0.43820000  1.0
  Si  Si60  1  0.13140000  0.57050000  0.93820000  1.0
  Si  Si61  1  0.36860000  0.92950000  0.06180000  1.0
  Si  Si62  1  0.36860000  0.92950000  0.43820000  1.0
  Si  Si63  1  0.13140000  0.57050000  0.56180000  1.0
  Si  Si64  1  0.63150000  0.93090000  0.56170000  1.0
  Si  Si65  1  0.86850000  0.56910000  0.43830000  1.0
  Si  Si66  1  0.86850000  0.56910000  0.06170000  1.0
  Si  Si67  1  0.63150000  0.93090000  0.93830000  1.0
  Si  Si68  1  0.13150000  0.56910000  0.43830000  1.0
  Si  Si69  1  0.36850000  0.93090000  0.56170000  1.0
  Si  Si70  1  0.36850000  0.93090000  0.93830000  1.0
  Si  Si71  1  0.13150000  0.56910000  0.06170000  1.0
  Si  Si72  1  0.63150000  0.74910000  0.68900000  1.0
  Si  Si73  1  0.86850000  0.75090000  0.31100000  1.0
  Si  Si74  1  0.86850000  0.75090000  0.18900000  1.0
  Si  Si75  1  0.63150000  0.74910000  0.81100000  1.0
  Si  Si76  1  0.13150000  0.75090000  0.31100000  1.0
  Si  Si77  1  0.36850000  0.74910000  0.68900000  1.0
  Si  Si78  1  0.36850000  0.74910000  0.81100000  1.0
  Si  Si79  1  0.13150000  0.75090000  0.18900000  1.0
  Si  Si80  1  0.21460000  0.87470000  0.15020000  1.0
  Si  Si81  1  0.28540000  0.62530000  0.84980000  1.0
  Si  Si82  1  0.28540000  0.62530000  0.65020000  1.0
  Si  Si83  1  0.21460000  0.87470000  0.34980000  1.0
  Si  Si84  1  0.71460000  0.62530000  0.84980000  1.0
  Si  Si85  1  0.78540000  0.87470000  0.15020000  1.0
  Si  Si86  1  0.78540000  0.87470000  0.34980000  1.0
  Si  Si87  1  0.71460000  0.62530000  0.65020000  1.0
  Si  Si88  1  0.74940000  0.62670000  0.15760000  1.0
  Si  Si89  1  0.75060000  0.87330000  0.84240000  1.0
  Si  Si90  1  0.75060000  0.87330000  0.65760000  1.0
  Si  Si91  1  0.74940000  0.62670000  0.34240000  1.0
  Si  Si92  1  0.24940000  0.87330000  0.84240000  1.0
  Si  Si93  1  0.25060000  0.62670000  0.15760000  1.0
  Si  Si94  1  0.25060000  0.62670000  0.34240000  1.0
  Si  Si95  1  0.24940000  0.87330000  0.65760000  1.0
  Si  Si96  1  0.50000000  0.55210000  0.68880000  1.0
  Si  Si97  1  0.00000000  0.94790000  0.31120000  1.0
  Si  Si98  1  0.00000000  0.94790000  0.18880000  1.0
  Si  Si99  1  0.50000000  0.55210000  0.81120000  1.0
  Si  Si100  1  0.50000000  0.59420000  0.18890000  1.0
  Si  Si101  1  0.00000000  0.90580000  0.81110000  1.0
  Si  Si102  1  0.00000000  0.90580000  0.68890000  1.0
  Si  Si103  1  0.50000000  0.59420000  0.31110000  1.0
  Si  Si104  1  0.63170000  0.94740000  0.75000000  1.0
  Si  Si105  1  0.86830000  0.55260000  0.25000000  1.0
  Si  Si106  1  0.13170000  0.55260000  0.25000000  1.0
  Si  Si107  1  0.36830000  0.94740000  0.75000000  1.0
  Si  Si108  1  0.63170000  0.90640000  0.25000000  1.0
  Si  Si109  1  0.86830000  0.59360000  0.75000000  1.0
  Si  Si110  1  0.13170000  0.59360000  0.75000000  1.0
  Si  Si111  1  0.36830000  0.90640000  0.25000000  1.0
  O  O112  1  0.11210000  0.12080000  0.15980000  1.0
  O  O113  1  0.38790000  0.37920000  0.84020000  1.0
  O  O114  1  0.38790000  0.37920000  0.65980000  1.0
  O  O115  1  0.11210000  0.12080000  0.34020000  1.0
  O  O116  1  0.61210000  0.37920000  0.84020000  1.0
  O  O117  1  0.88790000  0.12080000  0.15980000  1.0
  O  O118  1  0.88790000  0.12080000  0.34020000  1.0
  O  O119  1  0.61210000  0.37920000  0.65980000  1.0
  O  O120  1  0.61270000  0.42310000  0.15900000  1.0
  O  O121  1  0.88730000  0.07690000  0.84100000  1.0
  O  O122  1  0.88730000  0.07690000  0.65900000  1.0
  O  O123  1  0.61270000  0.42310000  0.34100000  1.0
  O  O124  1  0.11270000  0.07690000  0.84100000  1.0
  O  O125  1  0.38730000  0.42310000  0.15900000  1.0
  O  O126  1  0.38730000  0.42310000  0.34100000  1.0
  O  O127  1  0.11270000  0.07690000  0.65900000  1.0
  O  O128  1  0.14760000  0.49940000  0.07990000  1.0
  O  O129  1  0.35240000  0.00060000  0.92010000  1.0
  O  O130  1  0.35240000  0.00060000  0.57990000  1.0
  O  O131  1  0.14760000  0.49940000  0.42010000  1.0
  O  O132  1  0.64760000  0.00060000  0.92010000  1.0
  O  O133  1  0.85240000  0.49940000  0.07990000  1.0
  O  O134  1  0.85240000  0.49940000  0.42010000  1.0
  O  O135  1  0.64760000  0.00060000  0.57990000  1.0
  O  O136  1  0.16170000  0.19290000  0.65030000  1.0
  O  O137  1  0.33830000  0.30710000  0.34970000  1.0
  O  O138  1  0.33830000  0.30710000  0.15030000  1.0
  O  O139  1  0.16170000  0.19290000  0.84970000  1.0
  O  O140  1  0.66170000  0.30710000  0.34970000  1.0
  O  O141  1  0.83830000  0.19290000  0.65030000  1.0
  O  O142  1  0.83830000  0.19290000  0.84970000  1.0
  O  O143  1  0.66170000  0.30710000  0.15030000  1.0
  O  O144  1  0.16480000  0.42350000  0.50000000  1.0
  O  O145  1  0.33520000  0.07650000  0.50000000  1.0
  O  O146  1  0.33520000  0.07650000  0.00000000  1.0
  O  O147  1  0.16480000  0.42350000  0.00000000  1.0
  O  O148  1  0.66480000  0.07650000  0.50000000  1.0
  O  O149  1  0.83520000  0.42350000  0.50000000  1.0
  O  O150  1  0.83520000  0.42350000  0.00000000  1.0
  O  O151  1  0.66480000  0.07650000  0.00000000  1.0
  O  O152  1  0.19420000  0.37990000  0.19800000  1.0
  O  O153  1  0.30580000  0.12010000  0.80200000  1.0
  O  O154  1  0.30580000  0.12010000  0.69800000  1.0
  O  O155  1  0.19420000  0.37990000  0.30200000  1.0
  O  O156  1  0.69420000  0.12010000  0.80200000  1.0
  O  O157  1  0.80580000  0.37990000  0.19800000  1.0
  O  O158  1  0.80580000  0.37990000  0.30200000  1.0
  O  O159  1  0.69420000  0.12010000  0.69800000  1.0
  O  O160  1  0.69460000  0.07800000  0.19760000  1.0
  O  O161  1  0.80540000  0.42200000  0.80240000  1.0
  O  O162  1  0.80540000  0.42200000  0.69760000  1.0
  O  O163  1  0.69460000  0.07800000  0.30240000  1.0
  O  O164  1  0.19460000  0.42200000  0.80240000  1.0
  O  O165  1  0.30540000  0.07800000  0.19760000  1.0
  O  O166  1  0.30540000  0.07800000  0.30240000  1.0
  O  O167  1  0.19460000  0.42200000  0.69760000  1.0
  O  O168  1  0.21020000  0.38700000  0.59770000  1.0
  O  O169  1  0.28980000  0.11300000  0.40230000  1.0
  O  O170  1  0.28980000  0.11300000  0.09770000  1.0
  O  O171  1  0.21020000  0.38700000  0.90230000  1.0
  O  O172  1  0.71020000  0.11300000  0.40230000  1.0
  O  O173  1  0.78980000  0.38700000  0.59770000  1.0
  O  O174  1  0.78980000  0.38700000  0.90230000  1.0
  O  O175  1  0.71020000  0.11300000  0.09770000  1.0
  O  O176  1  0.21410000  0.30550000  0.67480000  1.0
  O  O177  1  0.28590000  0.19450000  0.32520000  1.0
  O  O178  1  0.28590000  0.19450000  0.17480000  1.0
  O  O179  1  0.21410000  0.30550000  0.82520000  1.0
  O  O180  1  0.71410000  0.19450000  0.32520000  1.0
  O  O181  1  0.78590000  0.30550000  0.67480000  1.0
  O  O182  1  0.78590000  0.30550000  0.82520000  1.0
  O  O183  1  0.71410000  0.19450000  0.17480000  1.0
  O  O184  1  0.21790000  0.38750000  0.09560000  1.0
  O  O185  1  0.28210000  0.11250000  0.90440000  1.0
  O  O186  1  0.28210000  0.11250000  0.59560000  1.0
  O  O187  1  0.21790000  0.38750000  0.40440000  1.0
  O  O188  1  0.71790000  0.11250000  0.90440000  1.0
  O  O189  1  0.78210000  0.38750000  0.09560000  1.0
  O  O190  1  0.78210000  0.38750000  0.40440000  1.0
  O  O191  1  0.71790000  0.11250000  0.59560000  1.0
  O  O192  1  0.00000000  0.02110000  0.18610000  1.0
  O  O193  1  0.50000000  0.47890000  0.81390000  1.0
  O  O194  1  0.50000000  0.47890000  0.68610000  1.0
  O  O195  1  0.00000000  0.02110000  0.31390000  1.0
  O  O196  1  0.00000000  0.26880000  0.68020000  1.0
  O  O197  1  0.50000000  0.23120000  0.31980000  1.0
  O  O198  1  0.50000000  0.23120000  0.18020000  1.0
  O  O199  1  0.00000000  0.26880000  0.81980000  1.0
  O  O200  1  0.00000000  0.40960000  0.07060000  1.0
  O  O201  1  0.50000000  0.09040000  0.92940000  1.0
  O  O202  1  0.50000000  0.09040000  0.57060000  1.0
  O  O203  1  0.00000000  0.40960000  0.42940000  1.0
  O  O204  1  0.00000000  0.41100000  0.56990000  1.0
  O  O205  1  0.50000000  0.08900000  0.43010000  1.0
  O  O206  1  0.50000000  0.08900000  0.06990000  1.0
  O  O207  1  0.00000000  0.41100000  0.93010000  1.0
  O  O208  1  0.13780000  0.47950000  0.25000000  1.0
  O  O209  1  0.36220000  0.02050000  0.75000000  1.0
  O  O210  1  0.63780000  0.02050000  0.75000000  1.0
  O  O211  1  0.86220000  0.47950000  0.25000000  1.0
  O  O212  1  0.15030000  0.22950000  0.75000000  1.0
  O  O213  1  0.34970000  0.27050000  0.25000000  1.0
  O  O214  1  0.65030000  0.27050000  0.25000000  1.0
  O  O215  1  0.84970000  0.22950000  0.75000000  1.0
  O  O216  1  0.00000000  0.07350000  0.75000000  1.0
  O  O217  1  0.50000000  0.42650000  0.25000000  1.0
  O  O218  1  0.00000000  0.11590000  0.25000000  1.0
  O  O219  1  0.50000000  0.38410000  0.75000000  1.0
  O  O220  1  0.00000000  0.38470000  0.25000000  1.0
  O  O221  1  0.50000000  0.11530000  0.75000000  1.0
  O  O222  1  0.00000000  0.42570000  0.75000000  1.0
  O  O223  1  0.50000000  0.07430000  0.25000000  1.0
  O  O224  1  0.61210000  0.62080000  0.15980000  1.0
  O  O225  1  0.88790000  0.87920000  0.84020000  1.0
  O  O226  1  0.88790000  0.87920000  0.65980000  1.0
  O  O227  1  0.61210000  0.62080000  0.34020000  1.0
  O  O228  1  0.11210000  0.87920000  0.84020000  1.0
  O  O229  1  0.38790000  0.62080000  0.15980000  1.0
  O  O230  1  0.38790000  0.62080000  0.34020000  1.0
  O  O231  1  0.11210000  0.87920000  0.65980000  1.0
  O  O232  1  0.11270000  0.92310000  0.15900000  1.0
  O  O233  1  0.38730000  0.57690000  0.84100000  1.0
  O  O234  1  0.38730000  0.57690000  0.65900000  1.0
  O  O235  1  0.11270000  0.92310000  0.34100000  1.0
  O  O236  1  0.61270000  0.57690000  0.84100000  1.0
  O  O237  1  0.88730000  0.92310000  0.15900000  1.0
  O  O238  1  0.88730000  0.92310000  0.34100000  1.0
  O  O239  1  0.61270000  0.57690000  0.65900000  1.0
  O  O240  1  0.64760000  0.99940000  0.07990000  1.0
  O  O241  1  0.85240000  0.50060000  0.92010000  1.0
  O  O242  1  0.85240000  0.50060000  0.57990000  1.0
  O  O243  1  0.64760000  0.99940000  0.42010000  1.0
  O  O244  1  0.14760000  0.50060000  0.92010000  1.0
  O  O245  1  0.35240000  0.99940000  0.07990000  1.0
  O  O246  1  0.35240000  0.99940000  0.42010000  1.0
  O  O247  1  0.14760000  0.50060000  0.57990000  1.0
  O  O248  1  0.66170000  0.69290000  0.65030000  1.0
  O  O249  1  0.83830000  0.80710000  0.34970000  1.0
  O  O250  1  0.83830000  0.80710000  0.15030000  1.0
  O  O251  1  0.66170000  0.69290000  0.84970000  1.0
  O  O252  1  0.16170000  0.80710000  0.34970000  1.0
  O  O253  1  0.33830000  0.69290000  0.65030000  1.0
  O  O254  1  0.33830000  0.69290000  0.84970000  1.0
  O  O255  1  0.16170000  0.80710000  0.15030000  1.0
  O  O256  1  0.66480000  0.92350000  0.50000000  1.0
  O  O257  1  0.83520000  0.57650000  0.50000000  1.0
  O  O258  1  0.83520000  0.57650000  0.00000000  1.0
  O  O259  1  0.66480000  0.92350000  0.00000000  1.0
  O  O260  1  0.16480000  0.57650000  0.50000000  1.0
  O  O261  1  0.33520000  0.92350000  0.50000000  1.0
  O  O262  1  0.33520000  0.92350000  0.00000000  1.0
  O  O263  1  0.16480000  0.57650000  0.00000000  1.0
  O  O264  1  0.69420000  0.87990000  0.19800000  1.0
  O  O265  1  0.80580000  0.62010000  0.80200000  1.0
  O  O266  1  0.80580000  0.62010000  0.69800000  1.0
  O  O267  1  0.69420000  0.87990000  0.30200000  1.0
  O  O268  1  0.19420000  0.62010000  0.80200000  1.0
  O  O269  1  0.30580000  0.87990000  0.19800000  1.0
  O  O270  1  0.30580000  0.87990000  0.30200000  1.0
  O  O271  1  0.19420000  0.62010000  0.69800000  1.0
  O  O272  1  0.19460000  0.57800000  0.19760000  1.0
  O  O273  1  0.30540000  0.92200000  0.80240000  1.0
  O  O274  1  0.30540000  0.92200000  0.69760000  1.0
  O  O275  1  0.19460000  0.57800000  0.30240000  1.0
  O  O276  1  0.69460000  0.92200000  0.80240000  1.0
  O  O277  1  0.80540000  0.57800000  0.19760000  1.0
  O  O278  1  0.80540000  0.57800000  0.30240000  1.0
  O  O279  1  0.69460000  0.92200000  0.69760000  1.0
  O  O280  1  0.71020000  0.88700000  0.59770000  1.0
  O  O281  1  0.78980000  0.61300000  0.40230000  1.0
  O  O282  1  0.78980000  0.61300000  0.09770000  1.0
  O  O283  1  0.71020000  0.88700000  0.90230000  1.0
  O  O284  1  0.21020000  0.61300000  0.40230000  1.0
  O  O285  1  0.28980000  0.88700000  0.59770000  1.0
  O  O286  1  0.28980000  0.88700000  0.90230000  1.0
  O  O287  1  0.21020000  0.61300000  0.09770000  1.0
  O  O288  1  0.71410000  0.80550000  0.67480000  1.0
  O  O289  1  0.78590000  0.69450000  0.32520000  1.0
  O  O290  1  0.78590000  0.69450000  0.17480000  1.0
  O  O291  1  0.71410000  0.80550000  0.82520000  1.0
  O  O292  1  0.21410000  0.69450000  0.32520000  1.0
  O  O293  1  0.28590000  0.80550000  0.67480000  1.0
  O  O294  1  0.28590000  0.80550000  0.82520000  1.0
  O  O295  1  0.21410000  0.69450000  0.17480000  1.0
  O  O296  1  0.71790000  0.88750000  0.09560000  1.0
  O  O297  1  0.78210000  0.61250000  0.90440000  1.0
  O  O298  1  0.78210000  0.61250000  0.59560000  1.0
  O  O299  1  0.71790000  0.88750000  0.40440000  1.0
  O  O300  1  0.21790000  0.61250000  0.90440000  1.0
  O  O301  1  0.28210000  0.88750000  0.09560000  1.0
  O  O302  1  0.28210000  0.88750000  0.40440000  1.0
  O  O303  1  0.21790000  0.61250000  0.59560000  1.0
  O  O304  1  0.50000000  0.52110000  0.18610000  1.0
  O  O305  1  0.00000000  0.97890000  0.81390000  1.0
  O  O306  1  0.00000000  0.97890000  0.68610000  1.0
  O  O307  1  0.50000000  0.52110000  0.31390000  1.0
  O  O308  1  0.50000000  0.76880000  0.68020000  1.0
  O  O309  1  0.00000000  0.73120000  0.31980000  1.0
  O  O310  1  0.00000000  0.73120000  0.18020000  1.0
  O  O311  1  0.50000000  0.76880000  0.81980000  1.0
  O  O312  1  0.50000000  0.90960000  0.07060000  1.0
  O  O313  1  0.00000000  0.59040000  0.92940000  1.0
  O  O314  1  0.00000000  0.59040000  0.57060000  1.0
  O  O315  1  0.50000000  0.90960000  0.42940000  1.0
  O  O316  1  0.50000000  0.91100000  0.56990000  1.0
  O  O317  1  0.00000000  0.58900000  0.43010000  1.0
  O  O318  1  0.00000000  0.58900000  0.06990000  1.0
  O  O319  1  0.50000000  0.91100000  0.93010000  1.0
  O  O320  1  0.63780000  0.97950000  0.25000000  1.0
  O  O321  1  0.86220000  0.52050000  0.75000000  1.0
  O  O322  1  0.13780000  0.52050000  0.75000000  1.0
  O  O323  1  0.36220000  0.97950000  0.25000000  1.0
  O  O324  1  0.65030000  0.72950000  0.75000000  1.0
  O  O325  1  0.84970000  0.77050000  0.25000000  1.0
  O  O326  1  0.15030000  0.77050000  0.25000000  1.0
  O  O327  1  0.34970000  0.72950000  0.75000000  1.0
  O  O328  1  0.50000000  0.57350000  0.75000000  1.0
  O  O329  1  0.00000000  0.92650000  0.25000000  1.0
  O  O330  1  0.50000000  0.61590000  0.25000000  1.0
  O  O331  1  0.00000000  0.88410000  0.75000000  1.0
  O  O332  1  0.50000000  0.88470000  0.25000000  1.0
  O  O333  1  0.00000000  0.61530000  0.75000000  1.0
  O  O334  1  0.50000000  0.92570000  0.75000000  1.0
  O  O335  1  0.00000000  0.57430000  0.25000000  1.0
