# generated using pymatgen
data_SiO2
_symmetry_space_group_name_H-M   Cmcm
_cell_length_a   11.67300000
_cell_length_b   21.96900000
_cell_length_c   25.17000000
_cell_angle_alpha   90.00000000
_cell_angle_beta   90.00000000
_cell_angle_gamma   90.00000000
_symmetry_Int_Tables_number   63
_chemical_formula_structural   SiO2
_chemical_formula_sum   'Si112 O224'
_cell_volume   6454.69892829
_cell_formula_units_Z   112
loop_
 _symmetry_equiv_pos_site_id
 _symmetry_equiv_pos_as_xyz
  1  'x, y, z'
  2  '-x, -y, -z'
  3  '-x, -y, z+1/2'
  4  'x, y, -z+1/2'
  5  'x, -y, -z'
  6  '-x, y, z'
  7  '-x, y, -z+1/2'
  8  'x, -y, z+1/2'
  9  'x+1/2, y+1/2, z'
  10  '-x+1/2, -y+1/2, -z'
  11  '-x+1/2, -y+1/2, z+1/2'
  12  'x+1/2, y+1/2, -z+1/2'
  13  'x+1/2, -y+1/2, -z'
  14  '-x+1/2, y+1/2, z'
  15  '-x+1/2, y+1/2, -z+1/2'
  16  'x+1/2, -y+1/2, z+1/2'
loop_
 _atom_site_type_symbol
 _atom_site_label
 _atom_site_symmetry_multiplicity
 _atom_site_fract_x
 _atom_site_fract_y
 _atom_site_fract_z
 _atom_site_occupancy
  Si  Si0  16  0.13140000  0.42950000  0.56180000  1
  Si  Si1  16  0.13150000  0.43090000  0.06170000  1
  Si  Si2  16  0.13150000  0.24910000  0.18900000  1
  Si  Si3  16  0.21460000  0.87470000  0.65020000  1
  Si  Si4  16  0.24940000  0.12670000  0.65760000  1
  Si  Si5  8  0.00000000  0.05210000  0.18880000  1
  Si  Si6  8  0.00000000  0.09420000  0.68890000  1
  Si  Si7  8  0.13170000  0.44740000  0.25000000  1
  Si  Si8  8  0.13170000  0.40640000  0.75000000  1
  O  O9  16  0.11210000  0.12080000  0.65980000  1
  O  O10  16  0.11270000  0.92310000  0.65900000  1
  O  O11  16  0.14760000  0.49940000  0.57990000  1
  O  O12  16  0.16170000  0.19290000  0.15030000  1
  O  O13  16  0.16480000  0.42350000  0.00000000  1
  O  O14  16  0.19420000  0.37990000  0.69800000  1
  O  O15  16  0.19460000  0.57800000  0.69760000  1
  O  O16  16  0.21020000  0.38700000  0.09770000  1
  O  O17  16  0.21410000  0.30550000  0.17480000  1
  O  O18  16  0.21790000  0.38750000  0.59560000  1
  O  O19  8  0.00000000  0.02110000  0.68610000  1
  O  O20  8  0.00000000  0.26880000  0.18020000  1
  O  O21  8  0.00000000  0.40960000  0.57060000  1
  O  O22  8  0.00000000  0.41100000  0.06990000  1
  O  O23  8  0.13780000  0.47950000  0.75000000  1
  O  O24  8  0.15030000  0.22950000  0.25000000  1
  O  O25  4  0.00000000  0.07350000  0.25000000  1
  O  O26  4  0.00000000  0.11590000  0.75000000  1
  O  O27  4  0.00000000  0.38470000  0.75000000  1
  O  O28  4  0.00000000  0.42570000  0.25000000  1
