# generated using pymatgen
data_SiO2
_symmetry_space_group_name_H-M   P6/mmm
_cell_length_a   18.86770021
_cell_length_b   18.86770021
_cell_length_c   11.63330000
_cell_angle_alpha   90.00000000
_cell_angle_beta   90.00000000
_cell_angle_gamma   120.00000000
_symmetry_Int_Tables_number   191
_chemical_formula_structural   SiO2
_chemical_formula_sum   'Si46 O92'
_cell_volume   3586.50543921
_cell_formula_units_Z   46
loop_
 _symmetry_equiv_pos_site_id
 _symmetry_equiv_pos_as_xyz
  1  'x, y, z'
  2  '-x, -y, -z'
  3  'x-y, x, z'
  4  '-x+y, -x, -z'
  5  '-y, x-y, z'
  6  'y, -x+y, -z'
  7  '-x, -y, z'
  8  'x, y, -z'
  9  '-x+y, -x, z'
  10  'x-y, x, -z'
  11  'y, -x+y, z'
  12  '-y, x-y, -z'
  13  '-y, -x, -z'
  14  'y, x, z'
  15  '-x, -x+y, -z'
  16  'x, x-y, z'
  17  '-x+y, y, -z'
  18  'x-y, -y, z'
  19  'y, x, -z'
  20  '-y, -x, z'
  21  'x, x-y, -z'
  22  '-x, -x+y, z'
  23  'x-y, -y, -z'
  24  '-x+y, y, z'
loop_
 _atom_site_type_symbol
 _atom_site_label
 _atom_site_symmetry_multiplicity
 _atom_site_fract_x
 _atom_site_fract_y
 _atom_site_fract_z
 _atom_site_occupancy
  Si  Si0  24  0.09499000  0.46612000  0.36613000  1
  Si  Si1  12  0.24401000  0.48802000  0.24872000  1
  Si  Si2  6  0.28108000  0.56216000  0.00000000  1
  Si  Si3  4  0.33333333  0.66666667  0.36197000  1
  O  O4  24  0.14978000  0.44060000  0.28913000  1
  O  O5  12  0.00000000  0.40578000  0.33599000  1
  O  O6  12  0.11061000  0.45712000  0.50000000  1
  O  O7  12  0.11834000  0.55917000  0.33995000  1
  O  O8  12  0.25240000  0.50480000  0.11250000  1
  O  O9  12  0.28696000  0.57392000  0.31615000  1
  O  O10  6  0.24140000  0.62070000  0.00000000  1
  O  O11  2  0.33333333  0.66666667  0.50000000  1
