# generated using pymatgen
data_SiO2
_symmetry_space_group_name_H-M   Cmmm
_cell_length_a   13.30200000
_cell_length_b   21.23300000
_cell_length_c   12.67600000
_cell_angle_alpha   90.00000000
_cell_angle_beta   90.00000000
_cell_angle_gamma   90.00000000
_symmetry_Int_Tables_number   65
_chemical_formula_structural   SiO2
_chemical_formula_sum   'Si56 O112'
_cell_volume   3580.22675542
_cell_formula_units_Z   56
loop_
 _symmetry_equiv_pos_site_id
 _symmetry_equiv_pos_as_xyz
  1  'x, y, z'
  2  '-x, -y, -z'
  3  '-x, -y, z'
  4  'x, y, -z'
  5  'x, -y, -z'
  6  '-x, y, z'
  7  '-x, y, -z'
  8  'x, -y, z'
  9  'x+1/2, y+1/2, z'
  10  '-x+1/2, -y+1/2, -z'
  11  '-x+1/2, -y+1/2, z'
  12  'x+1/2, y+1/2, -z'
  13  'x+1/2, -y+1/2, -z'
  14  '-x+1/2, y+1/2, z'
  15  '-x+1/2, y+1/2, -z'
  16  'x+1/2, -y+1/2, z'
loop_
 _atom_site_type_symbol
 _atom_site_label
 _atom_site_symmetry_multiplicity
 _atom_site_fract_x
 _atom_site_fract_y
 _atom_site_fract_z
 _atom_site_occupancy
  Si  Si0  16  0.11530000  0.27650000  0.12130000  1
  Si  Si1  16  0.11560000  0.07200000  0.37770000  1
  Si  Si2  16  0.19940000  0.15000000  0.19330000  1
  Si  Si3  8  0.11350000  0.07560000  0.00000000  1
  O  O4  16  0.12630000  0.21000000  0.18120000  1
  O  O5  16  0.17230000  0.09900000  0.10370000  1
  O  O6  16  0.18470000  0.11810000  0.30750000  1
  O  O7  16  0.18570000  0.32780000  0.17880000  1
  O  O8  8  0.00000000  0.07950000  0.34230000  1
  O  O9  8  0.00000000  0.29940000  0.12620000  1
  O  O10  8  0.12680000  0.09130000  0.50000000  1
  O  O11  8  0.14910000  0.26890000  0.00000000  1
  O  O12  8  0.15030000  0.00000000  0.36180000  1
  O  O13  4  0.00000000  0.10220000  0.00000000  1
  O  O14  4  0.11000000  0.00000000  0.00000000  1
