# generated using pymatgen
data_SiO2
_symmetry_space_group_name_H-M   'P 1'
_cell_length_a   13.30200000
_cell_length_b   21.23300000
_cell_length_c   12.67600000
_cell_angle_alpha   90.00000000
_cell_angle_beta   90.00000000
_cell_angle_gamma   90.00000000
_symmetry_Int_Tables_number   1
_chemical_formula_structural   SiO2
_chemical_formula_sum   'Si56 O112'
_cell_volume   3580.22675697
_cell_formula_units_Z   56
loop_
 _symmetry_equiv_pos_site_id
 _symmetry_equiv_pos_as_xyz
  1  'x, y, z'
loop_
 _atom_site_type_symbol
 _atom_site_label
 _atom_site_symmetry_multiplicity
 _atom_site_fract_x
 _atom_site_fract_y
 _atom_site_fract_z
 _atom_site_occupancy
  Si  Si0  1  0.61530000  0.77650000  0.12130000  1.0
  Si  Si1  1  0.38470000  0.22350000  0.87870000  1.0
  Si  Si2  1  0.38470000  0.22350000  0.12130000  1.0
  Si  Si3  1  0.61530000  0.77650000  0.87870000  1.0
  Si  Si4  1  0.61530000  0.22350000  0.87870000  1.0
  Si  Si5  1  0.38470000  0.77650000  0.12130000  1.0
  Si  Si6  1  0.38470000  0.77650000  0.87870000  1.0
  Si  Si7  1  0.61530000  0.22350000  0.12130000  1.0
  Si  Si8  1  0.11560000  0.07200000  0.37770000  1.0
  Si  Si9  1  0.88440000  0.92800000  0.62230000  1.0
  Si  Si10  1  0.88440000  0.92800000  0.37770000  1.0
  Si  Si11  1  0.11560000  0.07200000  0.62230000  1.0
  Si  Si12  1  0.11560000  0.92800000  0.62230000  1.0
  Si  Si13  1  0.88440000  0.07200000  0.37770000  1.0
  Si  Si14  1  0.88440000  0.07200000  0.62230000  1.0
  Si  Si15  1  0.11560000  0.92800000  0.37770000  1.0
  Si  Si16  1  0.19940000  0.15000000  0.19330000  1.0
  Si  Si17  1  0.80060000  0.85000000  0.80670000  1.0
  Si  Si18  1  0.80060000  0.85000000  0.19330000  1.0
  Si  Si19  1  0.19940000  0.15000000  0.80670000  1.0
  Si  Si20  1  0.19940000  0.85000000  0.80670000  1.0
  Si  Si21  1  0.80060000  0.15000000  0.19330000  1.0
  Si  Si22  1  0.80060000  0.15000000  0.80670000  1.0
  Si  Si23  1  0.19940000  0.85000000  0.19330000  1.0
  Si  Si24  1  0.11350000  0.07560000  0.00000000  1.0
  Si  Si25  1  0.88650000  0.92440000  0.00000000  1.0
  Si  Si26  1  0.11350000  0.92440000  0.00000000  1.0
  Si  Si27  1  0.88650000  0.07560000  0.00000000  1.0
  Si  Si28  1  0.11530000  0.27650000  0.12130000  1.0
  Si  Si29  1  0.88470000  0.72350000  0.87870000  1.0
  Si  Si30  1  0.88470000  0.72350000  0.12130000  1.0
  Si  Si31  1  0.11530000  0.27650000  0.87870000  1.0
  Si  Si32  1  0.11530000  0.72350000  0.87870000  1.0
  Si  Si33  1  0.88470000  0.27650000  0.12130000  1.0
  Si  Si34  1  0.88470000  0.27650000  0.87870000  1.0
  Si  Si35  1  0.11530000  0.72350000  0.12130000  1.0
  Si  Si36  1  0.61560000  0.57200000  0.37770000  1.0
  Si  Si37  1  0.38440000  0.42800000  0.62230000  1.0
  Si  Si38  1  0.38440000  0.42800000  0.37770000  1.0
  Si  Si39  1  0.61560000  0.57200000  0.62230000  1.0
  Si  Si40  1  0.61560000  0.42800000  0.62230000  1.0
  Si  Si41  1  0.38440000  0.57200000  0.37770000  1.0
  Si  Si42  1  0.38440000  0.57200000  0.62230000  1.0
  Si  Si43  1  0.61560000  0.42800000  0.37770000  1.0
  Si  Si44  1  0.69940000  0.65000000  0.19330000  1.0
  Si  Si45  1  0.30060000  0.35000000  0.80670000  1.0
  Si  Si46  1  0.30060000  0.35000000  0.19330000  1.0
  Si  Si47  1  0.69940000  0.65000000  0.80670000  1.0
  Si  Si48  1  0.69940000  0.35000000  0.80670000  1.0
  Si  Si49  1  0.30060000  0.65000000  0.19330000  1.0
  Si  Si50  1  0.30060000  0.65000000  0.80670000  1.0
  Si  Si51  1  0.69940000  0.35000000  0.19330000  1.0
  Si  Si52  1  0.61350000  0.57560000  0.00000000  1.0
  Si  Si53  1  0.38650000  0.42440000  0.00000000  1.0
  Si  Si54  1  0.61350000  0.42440000  0.00000000  1.0
  Si  Si55  1  0.38650000  0.57560000  0.00000000  1.0
  O  O56  1  0.62630000  0.71000000  0.18120000  1.0
  O  O57  1  0.37370000  0.29000000  0.81880000  1.0
  O  O58  1  0.37370000  0.29000000  0.18120000  1.0
  O  O59  1  0.62630000  0.71000000  0.81880000  1.0
  O  O60  1  0.62630000  0.29000000  0.81880000  1.0
  O  O61  1  0.37370000  0.71000000  0.18120000  1.0
  O  O62  1  0.37370000  0.71000000  0.81880000  1.0
  O  O63  1  0.62630000  0.29000000  0.18120000  1.0
  O  O64  1  0.17230000  0.09900000  0.10370000  1.0
  O  O65  1  0.82770000  0.90100000  0.89630000  1.0
  O  O66  1  0.82770000  0.90100000  0.10370000  1.0
  O  O67  1  0.17230000  0.09900000  0.89630000  1.0
  O  O68  1  0.17230000  0.90100000  0.89630000  1.0
  O  O69  1  0.82770000  0.09900000  0.10370000  1.0
  O  O70  1  0.82770000  0.09900000  0.89630000  1.0
  O  O71  1  0.17230000  0.90100000  0.10370000  1.0
  O  O72  1  0.18470000  0.11810000  0.30750000  1.0
  O  O73  1  0.81530000  0.88190000  0.69250000  1.0
  O  O74  1  0.81530000  0.88190000  0.30750000  1.0
  O  O75  1  0.18470000  0.11810000  0.69250000  1.0
  O  O76  1  0.18470000  0.88190000  0.69250000  1.0
  O  O77  1  0.81530000  0.11810000  0.30750000  1.0
  O  O78  1  0.81530000  0.11810000  0.69250000  1.0
  O  O79  1  0.18470000  0.88190000  0.30750000  1.0
  O  O80  1  0.68570000  0.82780000  0.17880000  1.0
  O  O81  1  0.31430000  0.17220000  0.82120000  1.0
  O  O82  1  0.31430000  0.17220000  0.17880000  1.0
  O  O83  1  0.68570000  0.82780000  0.82120000  1.0
  O  O84  1  0.68570000  0.17220000  0.82120000  1.0
  O  O85  1  0.31430000  0.82780000  0.17880000  1.0
  O  O86  1  0.31430000  0.82780000  0.82120000  1.0
  O  O87  1  0.68570000  0.17220000  0.17880000  1.0
  O  O88  1  0.50000000  0.57950000  0.34230000  1.0
  O  O89  1  0.50000000  0.42050000  0.65770000  1.0
  O  O90  1  0.50000000  0.42050000  0.34230000  1.0
  O  O91  1  0.50000000  0.57950000  0.65770000  1.0
  O  O92  1  0.50000000  0.79940000  0.12620000  1.0
  O  O93  1  0.50000000  0.20060000  0.87380000  1.0
  O  O94  1  0.50000000  0.20060000  0.12620000  1.0
  O  O95  1  0.50000000  0.79940000  0.87380000  1.0
  O  O96  1  0.12680000  0.09130000  0.50000000  1.0
  O  O97  1  0.87320000  0.90870000  0.50000000  1.0
  O  O98  1  0.12680000  0.90870000  0.50000000  1.0
  O  O99  1  0.87320000  0.09130000  0.50000000  1.0
  O  O100  1  0.64910000  0.76890000  0.00000000  1.0
  O  O101  1  0.35090000  0.23110000  0.00000000  1.0
  O  O102  1  0.64910000  0.23110000  0.00000000  1.0
  O  O103  1  0.35090000  0.76890000  0.00000000  1.0
  O  O104  1  0.15030000  0.00000000  0.36180000  1.0
  O  O105  1  0.84970000  0.00000000  0.63820000  1.0
  O  O106  1  0.84970000  0.00000000  0.36180000  1.0
  O  O107  1  0.15030000  0.00000000  0.63820000  1.0
  O  O108  1  0.50000000  0.60220000  0.00000000  1.0
  O  O109  1  0.50000000  0.39780000  0.00000000  1.0
  O  O110  1  0.11000000  0.00000000  0.00000000  1.0
  O  O111  1  0.89000000  0.00000000  0.00000000  1.0
  O  O112  1  0.12630000  0.21000000  0.18120000  1.0
  O  O113  1  0.87370000  0.79000000  0.81880000  1.0
  O  O114  1  0.87370000  0.79000000  0.18120000  1.0
  O  O115  1  0.12630000  0.21000000  0.81880000  1.0
  O  O116  1  0.12630000  0.79000000  0.81880000  1.0
  O  O117  1  0.87370000  0.21000000  0.18120000  1.0
  O  O118  1  0.87370000  0.21000000  0.81880000  1.0
  O  O119  1  0.12630000  0.79000000  0.18120000  1.0
  O  O120  1  0.67230000  0.59900000  0.10370000  1.0
  O  O121  1  0.32770000  0.40100000  0.89630000  1.0
  O  O122  1  0.32770000  0.40100000  0.10370000  1.0
  O  O123  1  0.67230000  0.59900000  0.89630000  1.0
  O  O124  1  0.67230000  0.40100000  0.89630000  1.0
  O  O125  1  0.32770000  0.59900000  0.10370000  1.0
  O  O126  1  0.32770000  0.59900000  0.89630000  1.0
  O  O127  1  0.67230000  0.40100000  0.10370000  1.0
  O  O128  1  0.68470000  0.61810000  0.30750000  1.0
  O  O129  1  0.31530000  0.38190000  0.69250000  1.0
  O  O130  1  0.31530000  0.38190000  0.30750000  1.0
  O  O131  1  0.68470000  0.61810000  0.69250000  1.0
  O  O132  1  0.68470000  0.38190000  0.69250000  1.0
  O  O133  1  0.31530000  0.61810000  0.30750000  1.0
  O  O134  1  0.31530000  0.61810000  0.69250000  1.0
  O  O135  1  0.68470000  0.38190000  0.30750000  1.0
  O  O136  1  0.18570000  0.32780000  0.17880000  1.0
  O  O137  1  0.81430000  0.67220000  0.82120000  1.0
  O  O138  1  0.81430000  0.67220000  0.17880000  1.0
  O  O139  1  0.18570000  0.32780000  0.82120000  1.0
  O  O140  1  0.18570000  0.67220000  0.82120000  1.0
  O  O141  1  0.81430000  0.32780000  0.17880000  1.0
  O  O142  1  0.81430000  0.32780000  0.82120000  1.0
  O  O143  1  0.18570000  0.67220000  0.17880000  1.0
  O  O144  1  0.00000000  0.07950000  0.34230000  1.0
  O  O145  1  0.00000000  0.92050000  0.65770000  1.0
  O  O146  1  0.00000000  0.92050000  0.34230000  1.0
  O  O147  1  0.00000000  0.07950000  0.65770000  1.0
  O  O148  1  0.00000000  0.29940000  0.12620000  1.0
  O  O149  1  0.00000000  0.70060000  0.87380000  1.0
  O  O150  1  0.00000000  0.70060000  0.12620000  1.0
  O  O151  1  0.00000000  0.29940000  0.87380000  1.0
  O  O152  1  0.62680000  0.59130000  0.50000000  1.0
  O  O153  1  0.37320000  0.40870000  0.50000000  1.0
  O  O154  1  0.62680000  0.40870000  0.50000000  1.0
  O  O155  1  0.37320000  0.59130000  0.50000000  1.0
  O  O156  1  0.14910000  0.26890000  0.00000000  1.0
  O  O157  1  0.85090000  0.73110000  0.00000000  1.0
  O  O158  1  0.14910000  0.73110000  0.00000000  1.0
  O  O159  1  0.85090000  0.26890000  0.00000000  1.0
  O  O160  1  0.65030000  0.50000000  0.36180000  1.0
  O  O161  1  0.34970000  0.50000000  0.63820000  1.0
  O  O162  1  0.34970000  0.50000000  0.36180000  1.0
  O  O163  1  0.65030000  0.50000000  0.63820000  1.0
  O  O164  1  0.00000000  0.10220000  0.00000000  1.0
  O  O165  1  0.00000000  0.89780000  0.00000000  1.0
  O  O166  1  0.61000000  0.50000000  0.00000000  1.0
  O  O167  1  0.39000000  0.50000000  0.00000000  1.0
