# generated using pymatgen
data_SiO2
_symmetry_space_group_name_H-M   I4/mmm
_cell_length_a   26.68900000
_cell_length_b   26.68900000
_cell_length_c   12.90800000
_cell_angle_alpha   90.00000000
_cell_angle_beta   90.00000000
_cell_angle_gamma   90.00000000
_symmetry_Int_Tables_number   139
_chemical_formula_structural   SiO2
_chemical_formula_sum   'Si136 O272'
_cell_volume   9194.40352267
_cell_formula_units_Z   136
loop_
 _symmetry_equiv_pos_site_id
 _symmetry_equiv_pos_as_xyz
  1  'x, y, z'
  2  '-x, -y, -z'
  3  '-y, x, z'
  4  'y, -x, -z'
  5  '-x, -y, z'
  6  'x, y, -z'
  7  'y, -x, z'
  8  '-y, x, -z'
  9  'x, -y, -z'
  10  '-x, y, z'
  11  '-y, -x, -z'
  12  'y, x, z'
  13  '-x, y, -z'
  14  'x, -y, z'
  15  'y, x, -z'
  16  '-y, -x, z'
  17  'x+1/2, y+1/2, z+1/2'
  18  '-x+1/2, -y+1/2, -z+1/2'
  19  '-y+1/2, x+1/2, z+1/2'
  20  'y+1/2, -x+1/2, -z+1/2'
  21  '-x+1/2, -y+1/2, z+1/2'
  22  'x+1/2, y+1/2, -z+1/2'
  23  'y+1/2, -x+1/2, z+1/2'
  24  '-y+1/2, x+1/2, -z+1/2'
  25  'x+1/2, -y+1/2, -z+1/2'
  26  '-x+1/2, y+1/2, z+1/2'
  27  '-y+1/2, -x+1/2, -z+1/2'
  28  'y+1/2, x+1/2, z+1/2'
  29  '-x+1/2, y+1/2, -z+1/2'
  30  'x+1/2, -y+1/2, z+1/2'
  31  'y+1/2, x+1/2, -z+1/2'
  32  '-y+1/2, -x+1/2, z+1/2'
loop_
 _atom_site_type_symbol
 _atom_site_label
 _atom_site_symmetry_multiplicity
 _atom_site_fract_x
 _atom_site_fract_y
 _atom_site_fract_z
 _atom_site_occupancy
  Si  Si0  32  0.05650000  0.20220000  0.12260000  1
  Si  Si1  32  0.05800000  0.31770000  0.11650000  1
  Si  Si2  16  0.00000000  0.44280000  0.37550000  1
  Si  Si3  16  0.05800000  0.05800000  0.38070000  1
  Si  Si4  16  0.09260000  0.40740000  0.25000000  1
  Si  Si5  16  0.11150000  0.11150000  0.19540000  1
  Si  Si6  8  0.05910000  0.05910000  0.00000000  1
  O  O7  32  0.04910000  0.41360000  0.33540000  1
  O  O8  32  0.06320000  0.26030000  0.15330000  1
  O  O9  32  0.08860000  0.35360000  0.19420000  1
  O  O10  32  0.09870000  0.17010000  0.18240000  1
  O  O11  16  0.00000000  0.06970000  0.35710000  1
  O  O12  16  0.00000000  0.18520000  0.15010000  1
  O  O13  16  0.00000000  0.33410000  0.11860000  1
  O  O14  16  0.06540000  0.19580000  0.00000000  1
  O  O15  16  0.07890000  0.32340000  0.00000000  1
  O  O16  16  0.08300000  0.08300000  0.10300000  1
  O  O17  16  0.09230000  0.09230000  0.30670000  1
  O  O18  8  0.00000000  0.07000000  0.00000000  1
  O  O19  8  0.00000000  0.44240000  0.50000000  1
  O  O20  8  0.00000000  0.50000000  0.16460000  1
  O  O21  8  0.07040000  0.07040000  0.50000000  1
