# generated using pymatgen
data_SiO2
_symmetry_space_group_name_H-M   'P 1'
_cell_length_a   26.68900000
_cell_length_b   26.68900000
_cell_length_c   12.90800000
_cell_angle_alpha   90.00000000
_cell_angle_beta   90.00000000
_cell_angle_gamma   90.00000000
_symmetry_Int_Tables_number   1
_chemical_formula_structural   SiO2
_chemical_formula_sum   'Si136 O272'
_cell_volume   9194.40352726
_cell_formula_units_Z   136
loop_
 _symmetry_equiv_pos_site_id
 _symmetry_equiv_pos_as_xyz
  1  'x, y, z'
loop_
 _atom_site_type_symbol
 _atom_site_label
 _atom_site_symmetry_multiplicity
 _atom_site_fract_x
 _atom_site_fract_y
 _atom_site_fract_z
 _atom_site_occupancy
  Si  Si0  1  0.20220000  0.05650000  0.87740000  1.0
  Si  Si1  1  0.79780000  0.94350000  0.12260000  1.0
  Si  Si2  1  0.55650000  0.29780000  0.37740000  1.0
  Si  Si3  1  0.44350000  0.70220000  0.62260000  1.0
  Si  Si4  1  0.79780000  0.94350000  0.87740000  1.0
  Si  Si5  1  0.20220000  0.05650000  0.12260000  1.0
  Si  Si6  1  0.44350000  0.70220000  0.37740000  1.0
  Si  Si7  1  0.55650000  0.29780000  0.62260000  1.0
  Si  Si8  1  0.79780000  0.05650000  0.12260000  1.0
  Si  Si9  1  0.20220000  0.94350000  0.87740000  1.0
  Si  Si10  1  0.44350000  0.29780000  0.62260000  1.0
  Si  Si11  1  0.55650000  0.70220000  0.37740000  1.0
  Si  Si12  1  0.20220000  0.94350000  0.12260000  1.0
  Si  Si13  1  0.79780000  0.05650000  0.87740000  1.0
  Si  Si14  1  0.55650000  0.70220000  0.62260000  1.0
  Si  Si15  1  0.44350000  0.29780000  0.37740000  1.0
  Si  Si16  1  0.31770000  0.05800000  0.88350000  1.0
  Si  Si17  1  0.68230000  0.94200000  0.11650000  1.0
  Si  Si18  1  0.55800000  0.18230000  0.38350000  1.0
  Si  Si19  1  0.44200000  0.81770000  0.61650000  1.0
  Si  Si20  1  0.68230000  0.94200000  0.88350000  1.0
  Si  Si21  1  0.31770000  0.05800000  0.11650000  1.0
  Si  Si22  1  0.44200000  0.81770000  0.38350000  1.0
  Si  Si23  1  0.55800000  0.18230000  0.61650000  1.0
  Si  Si24  1  0.68230000  0.05800000  0.11650000  1.0
  Si  Si25  1  0.31770000  0.94200000  0.88350000  1.0
  Si  Si26  1  0.44200000  0.18230000  0.61650000  1.0
  Si  Si27  1  0.55800000  0.81770000  0.38350000  1.0
  Si  Si28  1  0.31770000  0.94200000  0.11650000  1.0
  Si  Si29  1  0.68230000  0.05800000  0.88350000  1.0
  Si  Si30  1  0.55800000  0.81770000  0.61650000  1.0
  Si  Si31  1  0.44200000  0.18230000  0.38350000  1.0
  Si  Si32  1  0.44280000  0.00000000  0.62450000  1.0
  Si  Si33  1  0.55720000  0.00000000  0.37550000  1.0
  Si  Si34  1  0.50000000  0.05720000  0.12450000  1.0
  Si  Si35  1  0.50000000  0.94280000  0.87550000  1.0
  Si  Si36  1  0.55720000  0.00000000  0.62450000  1.0
  Si  Si37  1  0.44280000  0.00000000  0.37550000  1.0
  Si  Si38  1  0.50000000  0.94280000  0.12450000  1.0
  Si  Si39  1  0.50000000  0.05720000  0.87550000  1.0
  Si  Si40  1  0.05800000  0.05800000  0.61930000  1.0
  Si  Si41  1  0.44200000  0.44200000  0.88070000  1.0
  Si  Si42  1  0.05800000  0.94200000  0.61930000  1.0
  Si  Si43  1  0.44200000  0.55800000  0.88070000  1.0
  Si  Si44  1  0.44200000  0.44200000  0.11930000  1.0
  Si  Si45  1  0.05800000  0.05800000  0.38070000  1.0
  Si  Si46  1  0.44200000  0.55800000  0.11930000  1.0
  Si  Si47  1  0.05800000  0.94200000  0.38070000  1.0
  Si  Si48  1  0.40740000  0.09260000  0.75000000  1.0
  Si  Si49  1  0.59260000  0.90740000  0.25000000  1.0
  Si  Si50  1  0.59260000  0.09260000  0.25000000  1.0
  Si  Si51  1  0.40740000  0.90740000  0.75000000  1.0
  Si  Si52  1  0.59260000  0.90740000  0.75000000  1.0
  Si  Si53  1  0.40740000  0.09260000  0.25000000  1.0
  Si  Si54  1  0.40740000  0.90740000  0.25000000  1.0
  Si  Si55  1  0.59260000  0.09260000  0.75000000  1.0
  Si  Si56  1  0.11150000  0.11150000  0.80460000  1.0
  Si  Si57  1  0.38850000  0.38850000  0.69540000  1.0
  Si  Si58  1  0.11150000  0.88850000  0.80460000  1.0
  Si  Si59  1  0.38850000  0.61150000  0.69540000  1.0
  Si  Si60  1  0.38850000  0.38850000  0.30460000  1.0
  Si  Si61  1  0.11150000  0.11150000  0.19540000  1.0
  Si  Si62  1  0.38850000  0.61150000  0.30460000  1.0
  Si  Si63  1  0.11150000  0.88850000  0.19540000  1.0
  Si  Si64  1  0.05910000  0.05910000  0.00000000  1.0
  Si  Si65  1  0.44090000  0.44090000  0.50000000  1.0
  Si  Si66  1  0.05910000  0.94090000  0.00000000  1.0
  Si  Si67  1  0.44090000  0.55910000  0.50000000  1.0
  Si  Si68  1  0.70220000  0.55650000  0.37740000  1.0
  Si  Si69  1  0.29780000  0.44350000  0.62260000  1.0
  Si  Si70  1  0.05650000  0.79780000  0.87740000  1.0
  Si  Si71  1  0.94350000  0.20220000  0.12260000  1.0
  Si  Si72  1  0.29780000  0.44350000  0.37740000  1.0
  Si  Si73  1  0.70220000  0.55650000  0.62260000  1.0
  Si  Si74  1  0.94350000  0.20220000  0.87740000  1.0
  Si  Si75  1  0.05650000  0.79780000  0.12260000  1.0
  Si  Si76  1  0.29780000  0.55650000  0.62260000  1.0
  Si  Si77  1  0.70220000  0.44350000  0.37740000  1.0
  Si  Si78  1  0.94350000  0.79780000  0.12260000  1.0
  Si  Si79  1  0.05650000  0.20220000  0.87740000  1.0
  Si  Si80  1  0.70220000  0.44350000  0.62260000  1.0
  Si  Si81  1  0.29780000  0.55650000  0.37740000  1.0
  Si  Si82  1  0.05650000  0.20220000  0.12260000  1.0
  Si  Si83  1  0.94350000  0.79780000  0.87740000  1.0
  Si  Si84  1  0.81770000  0.55800000  0.38350000  1.0
  Si  Si85  1  0.18230000  0.44200000  0.61650000  1.0
  Si  Si86  1  0.05800000  0.68230000  0.88350000  1.0
  Si  Si87  1  0.94200000  0.31770000  0.11650000  1.0
  Si  Si88  1  0.18230000  0.44200000  0.38350000  1.0
  Si  Si89  1  0.81770000  0.55800000  0.61650000  1.0
  Si  Si90  1  0.94200000  0.31770000  0.88350000  1.0
  Si  Si91  1  0.05800000  0.68230000  0.11650000  1.0
  Si  Si92  1  0.18230000  0.55800000  0.61650000  1.0
  Si  Si93  1  0.81770000  0.44200000  0.38350000  1.0
  Si  Si94  1  0.94200000  0.68230000  0.11650000  1.0
  Si  Si95  1  0.05800000  0.31770000  0.88350000  1.0
  Si  Si96  1  0.81770000  0.44200000  0.61650000  1.0
  Si  Si97  1  0.18230000  0.55800000  0.38350000  1.0
  Si  Si98  1  0.05800000  0.31770000  0.11650000  1.0
  Si  Si99  1  0.94200000  0.68230000  0.88350000  1.0
  Si  Si100  1  0.94280000  0.50000000  0.12450000  1.0
  Si  Si101  1  0.05720000  0.50000000  0.87550000  1.0
  Si  Si102  1  0.00000000  0.55720000  0.62450000  1.0
  Si  Si103  1  0.00000000  0.44280000  0.37550000  1.0
  Si  Si104  1  0.05720000  0.50000000  0.12450000  1.0
  Si  Si105  1  0.94280000  0.50000000  0.87550000  1.0
  Si  Si106  1  0.00000000  0.44280000  0.62450000  1.0
  Si  Si107  1  0.00000000  0.55720000  0.37550000  1.0
  Si  Si108  1  0.55800000  0.55800000  0.11930000  1.0
  Si  Si109  1  0.94200000  0.94200000  0.38070000  1.0
  Si  Si110  1  0.55800000  0.44200000  0.11930000  1.0
  Si  Si111  1  0.94200000  0.05800000  0.38070000  1.0
  Si  Si112  1  0.94200000  0.94200000  0.61930000  1.0
  Si  Si113  1  0.55800000  0.55800000  0.88070000  1.0
  Si  Si114  1  0.94200000  0.05800000  0.61930000  1.0
  Si  Si115  1  0.55800000  0.44200000  0.88070000  1.0
  Si  Si116  1  0.90740000  0.59260000  0.25000000  1.0
  Si  Si117  1  0.09260000  0.40740000  0.75000000  1.0
  Si  Si118  1  0.09260000  0.59260000  0.75000000  1.0
  Si  Si119  1  0.90740000  0.40740000  0.25000000  1.0
  Si  Si120  1  0.09260000  0.40740000  0.25000000  1.0
  Si  Si121  1  0.90740000  0.59260000  0.75000000  1.0
  Si  Si122  1  0.90740000  0.40740000  0.75000000  1.0
  Si  Si123  1  0.09260000  0.59260000  0.25000000  1.0
  Si  Si124  1  0.61150000  0.61150000  0.30460000  1.0
  Si  Si125  1  0.88850000  0.88850000  0.19540000  1.0
  Si  Si126  1  0.61150000  0.38850000  0.30460000  1.0
  Si  Si127  1  0.88850000  0.11150000  0.19540000  1.0
  Si  Si128  1  0.88850000  0.88850000  0.80460000  1.0
  Si  Si129  1  0.61150000  0.61150000  0.69540000  1.0
  Si  Si130  1  0.88850000  0.11150000  0.80460000  1.0
  Si  Si131  1  0.61150000  0.38850000  0.69540000  1.0
  Si  Si132  1  0.55910000  0.55910000  0.50000000  1.0
  Si  Si133  1  0.94090000  0.94090000  0.00000000  1.0
  Si  Si134  1  0.55910000  0.44090000  0.50000000  1.0
  Si  Si135  1  0.94090000  0.05910000  0.00000000  1.0
  O  O136  1  0.41360000  0.04910000  0.66460000  1.0
  O  O137  1  0.58640000  0.95090000  0.33540000  1.0
  O  O138  1  0.54910000  0.08640000  0.16460000  1.0
  O  O139  1  0.45090000  0.91360000  0.83540000  1.0
  O  O140  1  0.58640000  0.95090000  0.66460000  1.0
  O  O141  1  0.41360000  0.04910000  0.33540000  1.0
  O  O142  1  0.45090000  0.91360000  0.16460000  1.0
  O  O143  1  0.54910000  0.08640000  0.83540000  1.0
  O  O144  1  0.58640000  0.04910000  0.33540000  1.0
  O  O145  1  0.41360000  0.95090000  0.66460000  1.0
  O  O146  1  0.45090000  0.08640000  0.83540000  1.0
  O  O147  1  0.54910000  0.91360000  0.16460000  1.0
  O  O148  1  0.41360000  0.95090000  0.33540000  1.0
  O  O149  1  0.58640000  0.04910000  0.66460000  1.0
  O  O150  1  0.54910000  0.91360000  0.83540000  1.0
  O  O151  1  0.45090000  0.08640000  0.16460000  1.0
  O  O152  1  0.26030000  0.06320000  0.84670000  1.0
  O  O153  1  0.73970000  0.93680000  0.15330000  1.0
  O  O154  1  0.56320000  0.23970000  0.34670000  1.0
  O  O155  1  0.43680000  0.76030000  0.65330000  1.0
  O  O156  1  0.73970000  0.93680000  0.84670000  1.0
  O  O157  1  0.26030000  0.06320000  0.15330000  1.0
  O  O158  1  0.43680000  0.76030000  0.34670000  1.0
  O  O159  1  0.56320000  0.23970000  0.65330000  1.0
  O  O160  1  0.73970000  0.06320000  0.15330000  1.0
  O  O161  1  0.26030000  0.93680000  0.84670000  1.0
  O  O162  1  0.43680000  0.23970000  0.65330000  1.0
  O  O163  1  0.56320000  0.76030000  0.34670000  1.0
  O  O164  1  0.26030000  0.93680000  0.15330000  1.0
  O  O165  1  0.73970000  0.06320000  0.84670000  1.0
  O  O166  1  0.56320000  0.76030000  0.65330000  1.0
  O  O167  1  0.43680000  0.23970000  0.34670000  1.0
  O  O168  1  0.35360000  0.08860000  0.80580000  1.0
  O  O169  1  0.64640000  0.91140000  0.19420000  1.0
  O  O170  1  0.58860000  0.14640000  0.30580000  1.0
  O  O171  1  0.41140000  0.85360000  0.69420000  1.0
  O  O172  1  0.64640000  0.91140000  0.80580000  1.0
  O  O173  1  0.35360000  0.08860000  0.19420000  1.0
  O  O174  1  0.41140000  0.85360000  0.30580000  1.0
  O  O175  1  0.58860000  0.14640000  0.69420000  1.0
  O  O176  1  0.64640000  0.08860000  0.19420000  1.0
  O  O177  1  0.35360000  0.91140000  0.80580000  1.0
  O  O178  1  0.41140000  0.14640000  0.69420000  1.0
  O  O179  1  0.58860000  0.85360000  0.30580000  1.0
  O  O180  1  0.35360000  0.91140000  0.19420000  1.0
  O  O181  1  0.64640000  0.08860000  0.80580000  1.0
  O  O182  1  0.58860000  0.85360000  0.69420000  1.0
  O  O183  1  0.41140000  0.14640000  0.30580000  1.0
  O  O184  1  0.17010000  0.09870000  0.81760000  1.0
  O  O185  1  0.82990000  0.90130000  0.18240000  1.0
  O  O186  1  0.59870000  0.32990000  0.31760000  1.0
  O  O187  1  0.40130000  0.67010000  0.68240000  1.0
  O  O188  1  0.82990000  0.90130000  0.81760000  1.0
  O  O189  1  0.17010000  0.09870000  0.18240000  1.0
  O  O190  1  0.40130000  0.67010000  0.31760000  1.0
  O  O191  1  0.59870000  0.32990000  0.68240000  1.0
  O  O192  1  0.82990000  0.09870000  0.18240000  1.0
  O  O193  1  0.17010000  0.90130000  0.81760000  1.0
  O  O194  1  0.40130000  0.32990000  0.68240000  1.0
  O  O195  1  0.59870000  0.67010000  0.31760000  1.0
  O  O196  1  0.17010000  0.90130000  0.18240000  1.0
  O  O197  1  0.82990000  0.09870000  0.81760000  1.0
  O  O198  1  0.59870000  0.67010000  0.68240000  1.0
  O  O199  1  0.40130000  0.32990000  0.31760000  1.0
  O  O200  1  0.06970000  0.00000000  0.64290000  1.0
  O  O201  1  0.93030000  0.00000000  0.35710000  1.0
  O  O202  1  0.50000000  0.43030000  0.14290000  1.0
  O  O203  1  0.50000000  0.56970000  0.85710000  1.0
  O  O204  1  0.93030000  0.00000000  0.64290000  1.0
  O  O205  1  0.06970000  0.00000000  0.35710000  1.0
  O  O206  1  0.50000000  0.56970000  0.14290000  1.0
  O  O207  1  0.50000000  0.43030000  0.85710000  1.0
  O  O208  1  0.18520000  0.00000000  0.84990000  1.0
  O  O209  1  0.81480000  0.00000000  0.15010000  1.0
  O  O210  1  0.50000000  0.31480000  0.34990000  1.0
  O  O211  1  0.50000000  0.68520000  0.65010000  1.0
  O  O212  1  0.81480000  0.00000000  0.84990000  1.0
  O  O213  1  0.18520000  0.00000000  0.15010000  1.0
  O  O214  1  0.50000000  0.68520000  0.34990000  1.0
  O  O215  1  0.50000000  0.31480000  0.65010000  1.0
  O  O216  1  0.33410000  0.00000000  0.88140000  1.0
  O  O217  1  0.66590000  0.00000000  0.11860000  1.0
  O  O218  1  0.50000000  0.16590000  0.38140000  1.0
  O  O219  1  0.50000000  0.83410000  0.61860000  1.0
  O  O220  1  0.66590000  0.00000000  0.88140000  1.0
  O  O221  1  0.33410000  0.00000000  0.11860000  1.0
  O  O222  1  0.50000000  0.83410000  0.38140000  1.0
  O  O223  1  0.50000000  0.16590000  0.61860000  1.0
  O  O224  1  0.19580000  0.06540000  0.00000000  1.0
  O  O225  1  0.80420000  0.93460000  0.00000000  1.0
  O  O226  1  0.56540000  0.30420000  0.50000000  1.0
  O  O227  1  0.43460000  0.69580000  0.50000000  1.0
  O  O228  1  0.80420000  0.06540000  0.00000000  1.0
  O  O229  1  0.19580000  0.93460000  0.00000000  1.0
  O  O230  1  0.43460000  0.30420000  0.50000000  1.0
  O  O231  1  0.56540000  0.69580000  0.50000000  1.0
  O  O232  1  0.32340000  0.07890000  0.00000000  1.0
  O  O233  1  0.67660000  0.92110000  0.00000000  1.0
  O  O234  1  0.57890000  0.17660000  0.50000000  1.0
  O  O235  1  0.42110000  0.82340000  0.50000000  1.0
  O  O236  1  0.67660000  0.07890000  0.00000000  1.0
  O  O237  1  0.32340000  0.92110000  0.00000000  1.0
  O  O238  1  0.42110000  0.17660000  0.50000000  1.0
  O  O239  1  0.57890000  0.82340000  0.50000000  1.0
  O  O240  1  0.08300000  0.08300000  0.89700000  1.0
  O  O241  1  0.41700000  0.41700000  0.60300000  1.0
  O  O242  1  0.08300000  0.91700000  0.89700000  1.0
  O  O243  1  0.41700000  0.58300000  0.60300000  1.0
  O  O244  1  0.41700000  0.41700000  0.39700000  1.0
  O  O245  1  0.08300000  0.08300000  0.10300000  1.0
  O  O246  1  0.41700000  0.58300000  0.39700000  1.0
  O  O247  1  0.08300000  0.91700000  0.10300000  1.0
  O  O248  1  0.09230000  0.09230000  0.69330000  1.0
  O  O249  1  0.40770000  0.40770000  0.80670000  1.0
  O  O250  1  0.09230000  0.90770000  0.69330000  1.0
  O  O251  1  0.40770000  0.59230000  0.80670000  1.0
  O  O252  1  0.40770000  0.40770000  0.19330000  1.0
  O  O253  1  0.09230000  0.09230000  0.30670000  1.0
  O  O254  1  0.40770000  0.59230000  0.19330000  1.0
  O  O255  1  0.09230000  0.90770000  0.30670000  1.0
  O  O256  1  0.07000000  0.00000000  0.00000000  1.0
  O  O257  1  0.93000000  0.00000000  0.00000000  1.0
  O  O258  1  0.50000000  0.43000000  0.50000000  1.0
  O  O259  1  0.50000000  0.57000000  0.50000000  1.0
  O  O260  1  0.44240000  0.00000000  0.50000000  1.0
  O  O261  1  0.55760000  0.00000000  0.50000000  1.0
  O  O262  1  0.50000000  0.05760000  0.00000000  1.0
  O  O263  1  0.50000000  0.94240000  0.00000000  1.0
  O  O264  1  0.50000000  0.00000000  0.83540000  1.0
  O  O265  1  0.50000000  0.00000000  0.16460000  1.0
  O  O266  1  0.50000000  0.00000000  0.33540000  1.0
  O  O267  1  0.50000000  0.00000000  0.66460000  1.0
  O  O268  1  0.07040000  0.07040000  0.50000000  1.0
  O  O269  1  0.42960000  0.42960000  0.00000000  1.0
  O  O270  1  0.07040000  0.92960000  0.50000000  1.0
  O  O271  1  0.42960000  0.57040000  0.00000000  1.0
  O  O272  1  0.91360000  0.54910000  0.16460000  1.0
  O  O273  1  0.08640000  0.45090000  0.83540000  1.0
  O  O274  1  0.04910000  0.58640000  0.66460000  1.0
  O  O275  1  0.95090000  0.41360000  0.33540000  1.0
  O  O276  1  0.08640000  0.45090000  0.16460000  1.0
  O  O277  1  0.91360000  0.54910000  0.83540000  1.0
  O  O278  1  0.95090000  0.41360000  0.66460000  1.0
  O  O279  1  0.04910000  0.58640000  0.33540000  1.0
  O  O280  1  0.08640000  0.54910000  0.83540000  1.0
  O  O281  1  0.91360000  0.45090000  0.16460000  1.0
  O  O282  1  0.95090000  0.58640000  0.33540000  1.0
  O  O283  1  0.04910000  0.41360000  0.66460000  1.0
  O  O284  1  0.91360000  0.45090000  0.83540000  1.0
  O  O285  1  0.08640000  0.54910000  0.16460000  1.0
  O  O286  1  0.04910000  0.41360000  0.33540000  1.0
  O  O287  1  0.95090000  0.58640000  0.66460000  1.0
  O  O288  1  0.76030000  0.56320000  0.34670000  1.0
  O  O289  1  0.23970000  0.43680000  0.65330000  1.0
  O  O290  1  0.06320000  0.73970000  0.84670000  1.0
  O  O291  1  0.93680000  0.26030000  0.15330000  1.0
  O  O292  1  0.23970000  0.43680000  0.34670000  1.0
  O  O293  1  0.76030000  0.56320000  0.65330000  1.0
  O  O294  1  0.93680000  0.26030000  0.84670000  1.0
  O  O295  1  0.06320000  0.73970000  0.15330000  1.0
  O  O296  1  0.23970000  0.56320000  0.65330000  1.0
  O  O297  1  0.76030000  0.43680000  0.34670000  1.0
  O  O298  1  0.93680000  0.73970000  0.15330000  1.0
  O  O299  1  0.06320000  0.26030000  0.84670000  1.0
  O  O300  1  0.76030000  0.43680000  0.65330000  1.0
  O  O301  1  0.23970000  0.56320000  0.34670000  1.0
  O  O302  1  0.06320000  0.26030000  0.15330000  1.0
  O  O303  1  0.93680000  0.73970000  0.84670000  1.0
  O  O304  1  0.85360000  0.58860000  0.30580000  1.0
  O  O305  1  0.14640000  0.41140000  0.69420000  1.0
  O  O306  1  0.08860000  0.64640000  0.80580000  1.0
  O  O307  1  0.91140000  0.35360000  0.19420000  1.0
  O  O308  1  0.14640000  0.41140000  0.30580000  1.0
  O  O309  1  0.85360000  0.58860000  0.69420000  1.0
  O  O310  1  0.91140000  0.35360000  0.80580000  1.0
  O  O311  1  0.08860000  0.64640000  0.19420000  1.0
  O  O312  1  0.14640000  0.58860000  0.69420000  1.0
  O  O313  1  0.85360000  0.41140000  0.30580000  1.0
  O  O314  1  0.91140000  0.64640000  0.19420000  1.0
  O  O315  1  0.08860000  0.35360000  0.80580000  1.0
  O  O316  1  0.85360000  0.41140000  0.69420000  1.0
  O  O317  1  0.14640000  0.58860000  0.30580000  1.0
  O  O318  1  0.08860000  0.35360000  0.19420000  1.0
  O  O319  1  0.91140000  0.64640000  0.80580000  1.0
  O  O320  1  0.67010000  0.59870000  0.31760000  1.0
  O  O321  1  0.32990000  0.40130000  0.68240000  1.0
  O  O322  1  0.09870000  0.82990000  0.81760000  1.0
  O  O323  1  0.90130000  0.17010000  0.18240000  1.0
  O  O324  1  0.32990000  0.40130000  0.31760000  1.0
  O  O325  1  0.67010000  0.59870000  0.68240000  1.0
  O  O326  1  0.90130000  0.17010000  0.81760000  1.0
  O  O327  1  0.09870000  0.82990000  0.18240000  1.0
  O  O328  1  0.32990000  0.59870000  0.68240000  1.0
  O  O329  1  0.67010000  0.40130000  0.31760000  1.0
  O  O330  1  0.90130000  0.82990000  0.18240000  1.0
  O  O331  1  0.09870000  0.17010000  0.81760000  1.0
  O  O332  1  0.67010000  0.40130000  0.68240000  1.0
  O  O333  1  0.32990000  0.59870000  0.31760000  1.0
  O  O334  1  0.09870000  0.17010000  0.18240000  1.0
  O  O335  1  0.90130000  0.82990000  0.81760000  1.0
  O  O336  1  0.56970000  0.50000000  0.14290000  1.0
  O  O337  1  0.43030000  0.50000000  0.85710000  1.0
  O  O338  1  0.00000000  0.93030000  0.64290000  1.0
  O  O339  1  0.00000000  0.06970000  0.35710000  1.0
  O  O340  1  0.43030000  0.50000000  0.14290000  1.0
  O  O341  1  0.56970000  0.50000000  0.85710000  1.0
  O  O342  1  0.00000000  0.06970000  0.64290000  1.0
  O  O343  1  0.00000000  0.93030000  0.35710000  1.0
  O  O344  1  0.68520000  0.50000000  0.34990000  1.0
  O  O345  1  0.31480000  0.50000000  0.65010000  1.0
  O  O346  1  0.00000000  0.81480000  0.84990000  1.0
  O  O347  1  0.00000000  0.18520000  0.15010000  1.0
  O  O348  1  0.31480000  0.50000000  0.34990000  1.0
  O  O349  1  0.68520000  0.50000000  0.65010000  1.0
  O  O350  1  0.00000000  0.18520000  0.84990000  1.0
  O  O351  1  0.00000000  0.81480000  0.15010000  1.0
  O  O352  1  0.83410000  0.50000000  0.38140000  1.0
  O  O353  1  0.16590000  0.50000000  0.61860000  1.0
  O  O354  1  0.00000000  0.66590000  0.88140000  1.0
  O  O355  1  0.00000000  0.33410000  0.11860000  1.0
  O  O356  1  0.16590000  0.50000000  0.38140000  1.0
  O  O357  1  0.83410000  0.50000000  0.61860000  1.0
  O  O358  1  0.00000000  0.33410000  0.88140000  1.0
  O  O359  1  0.00000000  0.66590000  0.11860000  1.0
  O  O360  1  0.69580000  0.56540000  0.50000000  1.0
  O  O361  1  0.30420000  0.43460000  0.50000000  1.0
  O  O362  1  0.06540000  0.80420000  0.00000000  1.0
  O  O363  1  0.93460000  0.19580000  0.00000000  1.0
  O  O364  1  0.30420000  0.56540000  0.50000000  1.0
  O  O365  1  0.69580000  0.43460000  0.50000000  1.0
  O  O366  1  0.93460000  0.80420000  0.00000000  1.0
  O  O367  1  0.06540000  0.19580000  0.00000000  1.0
  O  O368  1  0.82340000  0.57890000  0.50000000  1.0
  O  O369  1  0.17660000  0.42110000  0.50000000  1.0
  O  O370  1  0.07890000  0.67660000  0.00000000  1.0
  O  O371  1  0.92110000  0.32340000  0.00000000  1.0
  O  O372  1  0.17660000  0.57890000  0.50000000  1.0
  O  O373  1  0.82340000  0.42110000  0.50000000  1.0
  O  O374  1  0.92110000  0.67660000  0.00000000  1.0
  O  O375  1  0.07890000  0.32340000  0.00000000  1.0
  O  O376  1  0.58300000  0.58300000  0.39700000  1.0
  O  O377  1  0.91700000  0.91700000  0.10300000  1.0
  O  O378  1  0.58300000  0.41700000  0.39700000  1.0
  O  O379  1  0.91700000  0.08300000  0.10300000  1.0
  O  O380  1  0.91700000  0.91700000  0.89700000  1.0
  O  O381  1  0.58300000  0.58300000  0.60300000  1.0
  O  O382  1  0.91700000  0.08300000  0.89700000  1.0
  O  O383  1  0.58300000  0.41700000  0.60300000  1.0
  O  O384  1  0.59230000  0.59230000  0.19330000  1.0
  O  O385  1  0.90770000  0.90770000  0.30670000  1.0
  O  O386  1  0.59230000  0.40770000  0.19330000  1.0
  O  O387  1  0.90770000  0.09230000  0.30670000  1.0
  O  O388  1  0.90770000  0.90770000  0.69330000  1.0
  O  O389  1  0.59230000  0.59230000  0.80670000  1.0
  O  O390  1  0.90770000  0.09230000  0.69330000  1.0
  O  O391  1  0.59230000  0.40770000  0.80670000  1.0
  O  O392  1  0.57000000  0.50000000  0.50000000  1.0
  O  O393  1  0.43000000  0.50000000  0.50000000  1.0
  O  O394  1  0.00000000  0.93000000  0.00000000  1.0
  O  O395  1  0.00000000  0.07000000  0.00000000  1.0
  O  O396  1  0.94240000  0.50000000  0.00000000  1.0
  O  O397  1  0.05760000  0.50000000  0.00000000  1.0
  O  O398  1  0.00000000  0.55760000  0.50000000  1.0
  O  O399  1  0.00000000  0.44240000  0.50000000  1.0
  O  O400  1  0.00000000  0.50000000  0.33540000  1.0
  O  O401  1  0.00000000  0.50000000  0.66460000  1.0
  O  O402  1  0.00000000  0.50000000  0.83540000  1.0
  O  O403  1  0.00000000  0.50000000  0.16460000  1.0
  O  O404  1  0.57040000  0.57040000  0.00000000  1.0
  O  O405  1  0.92960000  0.92960000  0.50000000  1.0
  O  O406  1  0.57040000  0.42960000  0.00000000  1.0
  O  O407  1  0.92960000  0.07040000  0.50000000  1.0
