# generated using pymatgen
data_SiO2
_symmetry_space_group_name_H-M   'P 1'
_cell_length_a   12.71140000
_cell_length_b   12.71280000
_cell_length_c   41.69080000
_cell_angle_alpha   90.00000000
_cell_angle_beta   90.00000000
_cell_angle_gamma   90.00000000
_symmetry_Int_Tables_number   1
_chemical_formula_structural   SiO2
_chemical_formula_sum   'Si112 O224'
_cell_volume   6737.12846599
_cell_formula_units_Z   112
loop_
 _symmetry_equiv_pos_site_id
 _symmetry_equiv_pos_as_xyz
  1  'x, y, z'
loop_
 _atom_site_type_symbol
 _atom_site_label
 _atom_site_symmetry_multiplicity
 _atom_site_fract_x
 _atom_site_fract_y
 _atom_site_fract_z
 _atom_site_occupancy
  Si  Si0  1  0.87835000  0.89481000  0.38098000  1.0
  Si  Si1  1  0.87835000  0.10519000  0.61902000  1.0
  Si  Si2  1  0.12165000  0.60519000  0.88098000  1.0
  Si  Si3  1  0.12165000  0.39481000  0.11902000  1.0
  Si  Si4  1  0.12165000  0.10519000  0.61902000  1.0
  Si  Si5  1  0.12165000  0.89481000  0.38098000  1.0
  Si  Si6  1  0.87835000  0.39481000  0.11902000  1.0
  Si  Si7  1  0.87835000  0.60519000  0.88098000  1.0
  Si  Si8  1  0.87809000  0.68976000  0.41832000  1.0
  Si  Si9  1  0.87809000  0.31024000  0.58168000  1.0
  Si  Si10  1  0.12191000  0.81024000  0.91832000  1.0
  Si  Si11  1  0.12191000  0.18976000  0.08168000  1.0
  Si  Si12  1  0.12191000  0.31024000  0.58168000  1.0
  Si  Si13  1  0.12191000  0.68976000  0.41832000  1.0
  Si  Si14  1  0.87809000  0.18976000  0.08168000  1.0
  Si  Si15  1  0.87809000  0.81024000  0.91832000  1.0
  Si  Si16  1  0.87864000  0.56473000  0.35489000  1.0
  Si  Si17  1  0.87864000  0.43527000  0.64511000  1.0
  Si  Si18  1  0.12136000  0.93527000  0.85489000  1.0
  Si  Si19  1  0.12136000  0.06473000  0.14511000  1.0
  Si  Si20  1  0.12136000  0.43527000  0.64511000  1.0
  Si  Si21  1  0.12136000  0.56473000  0.35489000  1.0
  Si  Si22  1  0.87864000  0.06473000  0.14511000  1.0
  Si  Si23  1  0.87864000  0.93527000  0.85489000  1.0
  Si  Si24  1  0.87896000  0.76960000  0.31724000  1.0
  Si  Si25  1  0.87896000  0.23040000  0.68276000  1.0
  Si  Si26  1  0.12104000  0.73040000  0.81724000  1.0
  Si  Si27  1  0.12104000  0.26960000  0.18276000  1.0
  Si  Si28  1  0.12104000  0.23040000  0.68276000  1.0
  Si  Si29  1  0.12104000  0.76960000  0.31724000  1.0
  Si  Si30  1  0.87896000  0.26960000  0.18276000  1.0
  Si  Si31  1  0.87896000  0.73040000  0.81724000  1.0
  Si  Si32  1  0.69399000  0.40666000  0.35123000  1.0
  Si  Si33  1  0.69399000  0.59334000  0.64877000  1.0
  Si  Si34  1  0.30601000  0.09334000  0.85123000  1.0
  Si  Si35  1  0.30601000  0.90666000  0.14877000  1.0
  Si  Si36  1  0.30601000  0.59334000  0.64877000  1.0
  Si  Si37  1  0.30601000  0.40666000  0.35123000  1.0
  Si  Si38  1  0.69399000  0.90666000  0.14877000  1.0
  Si  Si39  1  0.69399000  0.09334000  0.85123000  1.0
  Si  Si40  1  0.69159000  0.04741000  0.37983000  1.0
  Si  Si41  1  0.69159000  0.95259000  0.62017000  1.0
  Si  Si42  1  0.30841000  0.45259000  0.87983000  1.0
  Si  Si43  1  0.30841000  0.54741000  0.12017000  1.0
  Si  Si44  1  0.30841000  0.95259000  0.62017000  1.0
  Si  Si45  1  0.30841000  0.04741000  0.37983000  1.0
  Si  Si46  1  0.69159000  0.54741000  0.12017000  1.0
  Si  Si47  1  0.69159000  0.45259000  0.87983000  1.0
  Si  Si48  1  0.69188000  0.84534000  0.27773000  1.0
  Si  Si49  1  0.69188000  0.15466000  0.72227000  1.0
  Si  Si50  1  0.30812000  0.65466000  0.77773000  1.0
  Si  Si51  1  0.30812000  0.34534000  0.22227000  1.0
  Si  Si52  1  0.30812000  0.15466000  0.72227000  1.0
  Si  Si53  1  0.30812000  0.84534000  0.27773000  1.0
  Si  Si54  1  0.69188000  0.34534000  0.22227000  1.0
  Si  Si55  1  0.69188000  0.65466000  0.77773000  1.0
  Si  Si56  1  0.69293000  0.61828000  0.46060000  1.0
  Si  Si57  1  0.69293000  0.38172000  0.53940000  1.0
  Si  Si58  1  0.30707000  0.88172000  0.96060000  1.0
  Si  Si59  1  0.30707000  0.11828000  0.03940000  1.0
  Si  Si60  1  0.30707000  0.38172000  0.53940000  1.0
  Si  Si61  1  0.30707000  0.61828000  0.46060000  1.0
  Si  Si62  1  0.69293000  0.11828000  0.03940000  1.0
  Si  Si63  1  0.69293000  0.88172000  0.96060000  1.0
  Si  Si64  1  0.61994000  0.28790000  0.29113000  1.0
  Si  Si65  1  0.61994000  0.71210000  0.70887000  1.0
  Si  Si66  1  0.38006000  0.21210000  0.79113000  1.0
  Si  Si67  1  0.38006000  0.78790000  0.20887000  1.0
  Si  Si68  1  0.38006000  0.71210000  0.70887000  1.0
  Si  Si69  1  0.38006000  0.28790000  0.29113000  1.0
  Si  Si70  1  0.61994000  0.78790000  0.20887000  1.0
  Si  Si71  1  0.61994000  0.21210000  0.79113000  1.0
  Si  Si72  1  0.62008000  0.05610000  0.30903000  1.0
  Si  Si73  1  0.62008000  0.94390000  0.69097000  1.0
  Si  Si74  1  0.37992000  0.44390000  0.80903000  1.0
  Si  Si75  1  0.37992000  0.55610000  0.19097000  1.0
  Si  Si76  1  0.37992000  0.94390000  0.69097000  1.0
  Si  Si77  1  0.37992000  0.05610000  0.30903000  1.0
  Si  Si78  1  0.62008000  0.55610000  0.19097000  1.0
  Si  Si79  1  0.62008000  0.44390000  0.80903000  1.0
  Si  Si80  1  0.62093000  0.26351000  0.40655000  1.0
  Si  Si81  1  0.62093000  0.73649000  0.59345000  1.0
  Si  Si82  1  0.37907000  0.23649000  0.90655000  1.0
  Si  Si83  1  0.37907000  0.76351000  0.09345000  1.0
  Si  Si84  1  0.37907000  0.73649000  0.59345000  1.0
  Si  Si85  1  0.37907000  0.26351000  0.40655000  1.0
  Si  Si86  1  0.62093000  0.76351000  0.09345000  1.0
  Si  Si87  1  0.62093000  0.23649000  0.90655000  1.0
  Si  Si88  1  0.62104000  0.39215000  0.46911000  1.0
  Si  Si89  1  0.62104000  0.60785000  0.53089000  1.0
  Si  Si90  1  0.37896000  0.10785000  0.96911000  1.0
  Si  Si91  1  0.37896000  0.89215000  0.03089000  1.0
  Si  Si92  1  0.37896000  0.60785000  0.53089000  1.0
  Si  Si93  1  0.37896000  0.39215000  0.46911000  1.0
  Si  Si94  1  0.62104000  0.89215000  0.03089000  1.0
  Si  Si95  1  0.62104000  0.10785000  0.96911000  1.0
  Si  Si96  1  0.50000000  0.89689000  0.37875000  1.0
  Si  Si97  1  0.50000000  0.10311000  0.62125000  1.0
  Si  Si98  1  0.50000000  0.60311000  0.87875000  1.0
  Si  Si99  1  0.50000000  0.39689000  0.12125000  1.0
  Si  Si100  1  0.50000000  0.68085000  0.41874000  1.0
  Si  Si101  1  0.50000000  0.31915000  0.58126000  1.0
  Si  Si102  1  0.50000000  0.81915000  0.91874000  1.0
  Si  Si103  1  0.50000000  0.18085000  0.08126000  1.0
  Si  Si104  1  0.50000000  0.55874000  0.35740000  1.0
  Si  Si105  1  0.50000000  0.44126000  0.64260000  1.0
  Si  Si106  1  0.50000000  0.94126000  0.85740000  1.0
  Si  Si107  1  0.50000000  0.05874000  0.14260000  1.0
  Si  Si108  1  0.50000000  0.77473000  0.31738000  1.0
  Si  Si109  1  0.50000000  0.22527000  0.68262000  1.0
  Si  Si110  1  0.50000000  0.72527000  0.81738000  1.0
  Si  Si111  1  0.50000000  0.27473000  0.18262000  1.0
  O  O112  1  0.86182000  0.81231000  0.40987000  1.0
  O  O113  1  0.86182000  0.18769000  0.59013000  1.0
  O  O114  1  0.13818000  0.68769000  0.90987000  1.0
  O  O115  1  0.13818000  0.31231000  0.09013000  1.0
  O  O116  1  0.13818000  0.18769000  0.59013000  1.0
  O  O117  1  0.13818000  0.81231000  0.40987000  1.0
  O  O118  1  0.86182000  0.31231000  0.09013000  1.0
  O  O119  1  0.86182000  0.68769000  0.90987000  1.0
  O  O120  1  0.00000000  0.92962000  0.37941000  1.0
  O  O121  1  0.00000000  0.07038000  0.62059000  1.0
  O  O122  1  0.00000000  0.57038000  0.87941000  1.0
  O  O123  1  0.00000000  0.42962000  0.12059000  1.0
  O  O124  1  0.84533000  0.83983000  0.34768000  1.0
  O  O125  1  0.84533000  0.16017000  0.65232000  1.0
  O  O126  1  0.15467000  0.66017000  0.84768000  1.0
  O  O127  1  0.15467000  0.33983000  0.15232000  1.0
  O  O128  1  0.15467000  0.16017000  0.65232000  1.0
  O  O129  1  0.15467000  0.83983000  0.34768000  1.0
  O  O130  1  0.84533000  0.33983000  0.15232000  1.0
  O  O131  1  0.84533000  0.66017000  0.84768000  1.0
  O  O132  1  0.80593000  0.99725000  0.38635000  1.0
  O  O133  1  0.80593000  0.00275000  0.61365000  1.0
  O  O134  1  0.19407000  0.50275000  0.88635000  1.0
  O  O135  1  0.19407000  0.49725000  0.11365000  1.0
  O  O136  1  0.19407000  0.00275000  0.61365000  1.0
  O  O137  1  0.19407000  0.99725000  0.38635000  1.0
  O  O138  1  0.80593000  0.49725000  0.11365000  1.0
  O  O139  1  0.80593000  0.50275000  0.88635000  1.0
  O  O140  1  0.00000000  0.66805000  0.42640000  1.0
  O  O141  1  0.00000000  0.33195000  0.57360000  1.0
  O  O142  1  0.00000000  0.83195000  0.92640000  1.0
  O  O143  1  0.00000000  0.16805000  0.07360000  1.0
  O  O144  1  0.84322000  0.61962000  0.38797000  1.0
  O  O145  1  0.84322000  0.38038000  0.61203000  1.0
  O  O146  1  0.15678000  0.88038000  0.88797000  1.0
  O  O147  1  0.15678000  0.11962000  0.11203000  1.0
  O  O148  1  0.15678000  0.38038000  0.61203000  1.0
  O  O149  1  0.15678000  0.61962000  0.38797000  1.0
  O  O150  1  0.84322000  0.11962000  0.11203000  1.0
  O  O151  1  0.84322000  0.88038000  0.88797000  1.0
  O  O152  1  0.80689000  0.65746000  0.44871000  1.0
  O  O153  1  0.80689000  0.34254000  0.55129000  1.0
  O  O154  1  0.19311000  0.84254000  0.94871000  1.0
  O  O155  1  0.19311000  0.15746000  0.05129000  1.0
  O  O156  1  0.19311000  0.34254000  0.55129000  1.0
  O  O157  1  0.19311000  0.65746000  0.44871000  1.0
  O  O158  1  0.80689000  0.15746000  0.05129000  1.0
  O  O159  1  0.80689000  0.84254000  0.94871000  1.0
  O  O160  1  0.00000000  0.52960000  0.35745000  1.0
  O  O161  1  0.00000000  0.47040000  0.64255000  1.0
  O  O162  1  0.00000000  0.97040000  0.85745000  1.0
  O  O163  1  0.00000000  0.02960000  0.14255000  1.0
  O  O164  1  0.86473000  0.64693000  0.32581000  1.0
  O  O165  1  0.86473000  0.35307000  0.67419000  1.0
  O  O166  1  0.13527000  0.85307000  0.82581000  1.0
  O  O167  1  0.13527000  0.14693000  0.17419000  1.0
  O  O168  1  0.13527000  0.35307000  0.67419000  1.0
  O  O169  1  0.13527000  0.64693000  0.32581000  1.0
  O  O170  1  0.86473000  0.14693000  0.17419000  1.0
  O  O171  1  0.86473000  0.85307000  0.82581000  1.0
  O  O172  1  0.80747000  0.46212000  0.34850000  1.0
  O  O173  1  0.80747000  0.53788000  0.65150000  1.0
  O  O174  1  0.19253000  0.03788000  0.84850000  1.0
  O  O175  1  0.19253000  0.96212000  0.15150000  1.0
  O  O176  1  0.19253000  0.53788000  0.65150000  1.0
  O  O177  1  0.19253000  0.46212000  0.34850000  1.0
  O  O178  1  0.80747000  0.96212000  0.15150000  1.0
  O  O179  1  0.80747000  0.03788000  0.84850000  1.0
  O  O180  1  0.00000000  0.79279000  0.30838000  1.0
  O  O181  1  0.00000000  0.20721000  0.69162000  1.0
  O  O182  1  0.00000000  0.70721000  0.80838000  1.0
  O  O183  1  0.00000000  0.29279000  0.19162000  1.0
  O  O184  1  0.80609000  0.79979000  0.28702000  1.0
  O  O185  1  0.80609000  0.20021000  0.71298000  1.0
  O  O186  1  0.19391000  0.70021000  0.78702000  1.0
  O  O187  1  0.19391000  0.29979000  0.21298000  1.0
  O  O188  1  0.19391000  0.20021000  0.71298000  1.0
  O  O189  1  0.19391000  0.79979000  0.28702000  1.0
  O  O190  1  0.80609000  0.29979000  0.21298000  1.0
  O  O191  1  0.80609000  0.70021000  0.78702000  1.0
  O  O192  1  0.50000000  0.78558000  0.39710000  1.0
  O  O193  1  0.50000000  0.21442000  0.60290000  1.0
  O  O194  1  0.50000000  0.71442000  0.89710000  1.0
  O  O195  1  0.50000000  0.28558000  0.10290000  1.0
  O  O196  1  0.50000000  0.87591000  0.34065000  1.0
  O  O197  1  0.50000000  0.12409000  0.65935000  1.0
  O  O198  1  0.50000000  0.62409000  0.84065000  1.0
  O  O199  1  0.50000000  0.37591000  0.15935000  1.0
  O  O200  1  0.60329000  0.96182000  0.38905000  1.0
  O  O201  1  0.60329000  0.03818000  0.61095000  1.0
  O  O202  1  0.39671000  0.53818000  0.88905000  1.0
  O  O203  1  0.39671000  0.46182000  0.11095000  1.0
  O  O204  1  0.39671000  0.03818000  0.61095000  1.0
  O  O205  1  0.39671000  0.96182000  0.38905000  1.0
  O  O206  1  0.60329000  0.46182000  0.11095000  1.0
  O  O207  1  0.60329000  0.53818000  0.88905000  1.0
  O  O208  1  0.50000000  0.57961000  0.39551000  1.0
  O  O209  1  0.50000000  0.42039000  0.60449000  1.0
  O  O210  1  0.50000000  0.92039000  0.89551000  1.0
  O  O211  1  0.50000000  0.07961000  0.10449000  1.0
  O  O212  1  0.60346000  0.68061000  0.44097000  1.0
  O  O213  1  0.60346000  0.31939000  0.55903000  1.0
  O  O214  1  0.39654000  0.81939000  0.94097000  1.0
  O  O215  1  0.39654000  0.18061000  0.05903000  1.0
  O  O216  1  0.39654000  0.31939000  0.55903000  1.0
  O  O217  1  0.39654000  0.68061000  0.44097000  1.0
  O  O218  1  0.60346000  0.18061000  0.05903000  1.0
  O  O219  1  0.60346000  0.81939000  0.94097000  1.0
  O  O220  1  0.50000000  0.67002000  0.33903000  1.0
  O  O221  1  0.50000000  0.32998000  0.66097000  1.0
  O  O222  1  0.50000000  0.82998000  0.83903000  1.0
  O  O223  1  0.50000000  0.17002000  0.16097000  1.0
  O  O224  1  0.60348000  0.49410000  0.34717000  1.0
  O  O225  1  0.60348000  0.50590000  0.65283000  1.0
  O  O226  1  0.39652000  0.00590000  0.84717000  1.0
  O  O227  1  0.39652000  0.99410000  0.15283000  1.0
  O  O228  1  0.39652000  0.50590000  0.65283000  1.0
  O  O229  1  0.39652000  0.49410000  0.34717000  1.0
  O  O230  1  0.60348000  0.99410000  0.15283000  1.0
  O  O231  1  0.60348000  0.00590000  0.84717000  1.0
  O  O232  1  0.60321000  0.77495000  0.29502000  1.0
  O  O233  1  0.60321000  0.22505000  0.70498000  1.0
  O  O234  1  0.39679000  0.72505000  0.79502000  1.0
  O  O235  1  0.39679000  0.27495000  0.20498000  1.0
  O  O236  1  0.39679000  0.22505000  0.70498000  1.0
  O  O237  1  0.39679000  0.77495000  0.29502000  1.0
  O  O238  1  0.60321000  0.27495000  0.20498000  1.0
  O  O239  1  0.60321000  0.72505000  0.79502000  1.0
  O  O240  1  0.68233000  0.32012000  0.32326000  1.0
  O  O241  1  0.68233000  0.67988000  0.67674000  1.0
  O  O242  1  0.31767000  0.17988000  0.82326000  1.0
  O  O243  1  0.31767000  0.82012000  0.17674000  1.0
  O  O244  1  0.31767000  0.67988000  0.67674000  1.0
  O  O245  1  0.31767000  0.32012000  0.32326000  1.0
  O  O246  1  0.68233000  0.82012000  0.17674000  1.0
  O  O247  1  0.68233000  0.17988000  0.82326000  1.0
  O  O248  1  0.68246000  0.35040000  0.38563000  1.0
  O  O249  1  0.68246000  0.64960000  0.61437000  1.0
  O  O250  1  0.31754000  0.14960000  0.88563000  1.0
  O  O251  1  0.31754000  0.85040000  0.11437000  1.0
  O  O252  1  0.31754000  0.64960000  0.61437000  1.0
  O  O253  1  0.31754000  0.35040000  0.38563000  1.0
  O  O254  1  0.68246000  0.85040000  0.11437000  1.0
  O  O255  1  0.68246000  0.14960000  0.88563000  1.0
  O  O256  1  0.67906000  0.07798000  0.34255000  1.0
  O  O257  1  0.67906000  0.92202000  0.65745000  1.0
  O  O258  1  0.32094000  0.42202000  0.84255000  1.0
  O  O259  1  0.32094000  0.57798000  0.15745000  1.0
  O  O260  1  0.32094000  0.92202000  0.65745000  1.0
  O  O261  1  0.32094000  0.07798000  0.34255000  1.0
  O  O262  1  0.67906000  0.57798000  0.15745000  1.0
  O  O263  1  0.67906000  0.42202000  0.84255000  1.0
  O  O264  1  0.67619000  0.15069000  0.40168000  1.0
  O  O265  1  0.67619000  0.84931000  0.59832000  1.0
  O  O266  1  0.32381000  0.34931000  0.90168000  1.0
  O  O267  1  0.32381000  0.65069000  0.09832000  1.0
  O  O268  1  0.32381000  0.84931000  0.59832000  1.0
  O  O269  1  0.32381000  0.15069000  0.40168000  1.0
  O  O270  1  0.67619000  0.65069000  0.09832000  1.0
  O  O271  1  0.67619000  0.34931000  0.90168000  1.0
  O  O272  1  0.67646000  0.84063000  0.23945000  1.0
  O  O273  1  0.67646000  0.15937000  0.76055000  1.0
  O  O274  1  0.32354000  0.65937000  0.73945000  1.0
  O  O275  1  0.32354000  0.34063000  0.26055000  1.0
  O  O276  1  0.32354000  0.15937000  0.76055000  1.0
  O  O277  1  0.32354000  0.84063000  0.23945000  1.0
  O  O278  1  0.67646000  0.34063000  0.26055000  1.0
  O  O279  1  0.67646000  0.65937000  0.73945000  1.0
  O  O280  1  0.68165000  0.96509000  0.28985000  1.0
  O  O281  1  0.68165000  0.03491000  0.71015000  1.0
  O  O282  1  0.31835000  0.53491000  0.78985000  1.0
  O  O283  1  0.31835000  0.46509000  0.21015000  1.0
  O  O284  1  0.31835000  0.03491000  0.71015000  1.0
  O  O285  1  0.31835000  0.96509000  0.28985000  1.0
  O  O286  1  0.68165000  0.46509000  0.21015000  1.0
  O  O287  1  0.68165000  0.53491000  0.78985000  1.0
  O  O288  1  0.67956000  0.49387000  0.45455000  1.0
  O  O289  1  0.67956000  0.50613000  0.54545000  1.0
  O  O290  1  0.32044000  0.00613000  0.95455000  1.0
  O  O291  1  0.32044000  0.99387000  0.04545000  1.0
  O  O292  1  0.32044000  0.50613000  0.54545000  1.0
  O  O293  1  0.32044000  0.49387000  0.45455000  1.0
  O  O294  1  0.67956000  0.99387000  0.04545000  1.0
  O  O295  1  0.67956000  0.00613000  0.95455000  1.0
  O  O296  1  0.67936000  0.64257000  0.49827000  1.0
  O  O297  1  0.67936000  0.35743000  0.50173000  1.0
  O  O298  1  0.32064000  0.85743000  0.99827000  1.0
  O  O299  1  0.32064000  0.14257000  0.00173000  1.0
  O  O300  1  0.32064000  0.35743000  0.50173000  1.0
  O  O301  1  0.32064000  0.64257000  0.49827000  1.0
  O  O302  1  0.67936000  0.14257000  0.00173000  1.0
  O  O303  1  0.67936000  0.85743000  0.99827000  1.0
  O  O304  1  0.50000000  0.32801000  0.29338000  1.0
  O  O305  1  0.50000000  0.67199000  0.70662000  1.0
  O  O306  1  0.50000000  0.17199000  0.79338000  1.0
  O  O307  1  0.50000000  0.82801000  0.20662000  1.0
  O  O308  1  0.62111000  0.16174000  0.28770000  1.0
  O  O309  1  0.62111000  0.83826000  0.71230000  1.0
  O  O310  1  0.37889000  0.33826000  0.78770000  1.0
  O  O311  1  0.37889000  0.66174000  0.21230000  1.0
  O  O312  1  0.37889000  0.83826000  0.71230000  1.0
  O  O313  1  0.37889000  0.16174000  0.28770000  1.0
  O  O314  1  0.62111000  0.66174000  0.21230000  1.0
  O  O315  1  0.62111000  0.33826000  0.78770000  1.0
  O  O316  1  0.50000000  0.02150000  0.31541000  1.0
  O  O317  1  0.50000000  0.97850000  0.68459000  1.0
  O  O318  1  0.50000000  0.47850000  0.81541000  1.0
  O  O319  1  0.50000000  0.52150000  0.18459000  1.0
  O  O320  1  0.50000000  0.25749000  0.39521000  1.0
  O  O321  1  0.50000000  0.74251000  0.60479000  1.0
  O  O322  1  0.50000000  0.24251000  0.89521000  1.0
  O  O323  1  0.50000000  0.75749000  0.10479000  1.0
  O  O324  1  0.62594000  0.29664000  0.44379000  1.0
  O  O325  1  0.62594000  0.70336000  0.55621000  1.0
  O  O326  1  0.37406000  0.20336000  0.94379000  1.0
  O  O327  1  0.37406000  0.79664000  0.05621000  1.0
  O  O328  1  0.37406000  0.70336000  0.55621000  1.0
  O  O329  1  0.37406000  0.29664000  0.44379000  1.0
  O  O330  1  0.62594000  0.79664000  0.05621000  1.0
  O  O331  1  0.62594000  0.20336000  0.94379000  1.0
  O  O332  1  0.50000000  0.42025000  0.47662000  1.0
  O  O333  1  0.50000000  0.57975000  0.52338000  1.0
  O  O334  1  0.50000000  0.07975000  0.97662000  1.0
  O  O335  1  0.50000000  0.92025000  0.02338000  1.0
