# generated using pymatgen
data_SiO2
_symmetry_space_group_name_H-M   Pa-3
_cell_length_a   19.84500000
_cell_length_b   19.84500000
_cell_length_c   19.84500000
_cell_angle_alpha   90.00000000
_cell_angle_beta   90.00000000
_cell_angle_gamma   90.00000000
_symmetry_Int_Tables_number   205
_chemical_formula_structural   SiO2
_chemical_formula_sum   'Si96 O192'
_cell_volume   7815.43777612
_cell_formula_units_Z   96
loop_
 _symmetry_equiv_pos_site_id
 _symmetry_equiv_pos_as_xyz
  1  'x, y, z'
  2  '-x, -y, -z'
  3  '-x+1/2, -y, z+1/2'
  4  'x+1/2, y, -z+1/2'
  5  'x+1/2, -y+1/2, -z'
  6  '-x+1/2, y+1/2, z'
  7  '-x, y+1/2, -z+1/2'
  8  'x, -y+1/2, z+1/2'
  9  'z, x, y'
  10  '-z, -x, -y'
  11  'z+1/2, -x+1/2, -y'
  12  '-z+1/2, x+1/2, y'
  13  '-z, x+1/2, -y+1/2'
  14  'z, -x+1/2, y+1/2'
  15  '-z+1/2, -x, y+1/2'
  16  'z+1/2, x, -y+1/2'
  17  'y, z, x'
  18  '-y, -z, -x'
  19  '-y, z+1/2, -x+1/2'
  20  'y, -z+1/2, x+1/2'
  21  '-y+1/2, -z, x+1/2'
  22  'y+1/2, z, -x+1/2'
  23  'y+1/2, -z+1/2, -x'
  24  '-y+1/2, z+1/2, x'
loop_
 _atom_site_type_symbol
 _atom_site_label
 _atom_site_symmetry_multiplicity
 _atom_site_fract_x
 _atom_site_fract_y
 _atom_site_fract_z
 _atom_site_occupancy
  Si  Si0  24  0.00344000  0.10222000  0.39554000  1
  Si  Si1  24  0.01537000  0.54407000  0.65790000  1
  Si  Si2  24  0.03477000  0.22959000  0.46249000  1
  Si  Si3  24  0.06865000  0.13123000  0.92815000  1
  O  O4  24  0.00063000  0.18273000  0.40560000  1
  O  O5  24  0.00778000  0.52320000  0.73600000  1
  O  O6  24  0.00869000  0.08270000  0.31692000  1
  O  O7  24  0.00972000  0.51928000  0.38643000  1
  O  O8  24  0.03280000  0.10710000  0.85941000  1
  O  O9  24  0.06191000  0.63909000  0.40777000  1
  O  O10  24  0.06380000  0.56800000  0.07436000  1
  O  O11  24  0.07257000  0.57873000  0.28821000  1
