# generated using pymatgen
data_SiO2
_symmetry_space_group_name_H-M   'P 1'
_cell_length_a   11.91900000
_cell_length_b   11.91900000
_cell_length_c   11.91900000
_cell_angle_alpha   90.00000000
_cell_angle_beta   90.00000000
_cell_angle_gamma   90.00000000
_symmetry_Int_Tables_number   1
_chemical_formula_structural   SiO2
_chemical_formula_sum   'Si24 O48'
_cell_volume   1693.24366456
_cell_formula_units_Z   24
loop_
 _symmetry_equiv_pos_site_id
 _symmetry_equiv_pos_as_xyz
  1  'x, y, z'
loop_
 _atom_site_type_symbol
 _atom_site_label
 _atom_site_symmetry_multiplicity
 _atom_site_fract_x
 _atom_site_fract_y
 _atom_site_fract_z
 _atom_site_occupancy
  Si  Si0  1  0.00000000  0.18230000  0.36840000  1.0
  Si  Si1  1  0.36840000  0.00000000  0.18230000  1.0
  Si  Si2  1  0.18230000  0.36840000  0.00000000  1.0
  Si  Si3  1  0.00000000  0.18230000  0.63160000  1.0
  Si  Si4  1  0.36840000  0.00000000  0.81770000  1.0
  Si  Si5  1  0.63160000  0.00000000  0.18230000  1.0
  Si  Si6  1  0.81770000  0.36840000  0.00000000  1.0
  Si  Si7  1  0.63160000  0.00000000  0.81770000  1.0
  Si  Si8  1  0.18230000  0.00000000  0.36840000  1.0
  Si  Si9  1  0.00000000  0.36840000  0.18230000  1.0
  Si  Si10  1  0.36840000  0.18230000  0.00000000  1.0
  Si  Si11  1  0.18230000  0.00000000  0.63160000  1.0
  Si  Si12  1  0.00000000  0.36840000  0.81770000  1.0
  Si  Si13  1  0.00000000  0.63160000  0.18230000  1.0
  Si  Si14  1  0.36840000  0.81770000  0.00000000  1.0
  Si  Si15  1  0.00000000  0.63160000  0.81770000  1.0
  Si  Si16  1  0.00000000  0.81770000  0.63160000  1.0
  Si  Si17  1  0.81770000  0.63160000  0.00000000  1.0
  Si  Si18  1  0.00000000  0.81770000  0.36840000  1.0
  Si  Si19  1  0.18230000  0.63160000  0.00000000  1.0
  Si  Si20  1  0.81770000  0.00000000  0.63160000  1.0
  Si  Si21  1  0.63160000  0.81770000  0.00000000  1.0
  Si  Si22  1  0.81770000  0.00000000  0.36840000  1.0
  Si  Si23  1  0.63160000  0.18230000  0.00000000  1.0
  O  O24  1  0.00000000  0.21220000  0.50000000  1.0
  O  O25  1  0.50000000  0.00000000  0.21220000  1.0
  O  O26  1  0.21220000  0.50000000  0.00000000  1.0
  O  O27  1  0.50000000  0.00000000  0.78780000  1.0
  O  O28  1  0.78780000  0.50000000  0.00000000  1.0
  O  O29  1  0.21220000  0.00000000  0.50000000  1.0
  O  O30  1  0.00000000  0.50000000  0.21220000  1.0
  O  O31  1  0.50000000  0.21220000  0.00000000  1.0
  O  O32  1  0.00000000  0.50000000  0.78780000  1.0
  O  O33  1  0.50000000  0.78780000  0.00000000  1.0
  O  O34  1  0.00000000  0.78780000  0.50000000  1.0
  O  O35  1  0.78780000  0.00000000  0.50000000  1.0
  O  O36  1  0.11030000  0.11030000  0.33840000  1.0
  O  O37  1  0.33840000  0.11030000  0.11030000  1.0
  O  O38  1  0.11030000  0.33840000  0.11030000  1.0
  O  O39  1  0.11030000  0.11030000  0.66160000  1.0
  O  O40  1  0.33840000  0.11030000  0.88970000  1.0
  O  O41  1  0.11030000  0.33840000  0.88970000  1.0
  O  O42  1  0.88970000  0.11030000  0.33840000  1.0
  O  O43  1  0.66160000  0.11030000  0.11030000  1.0
  O  O44  1  0.88970000  0.33840000  0.11030000  1.0
  O  O45  1  0.88970000  0.11030000  0.66160000  1.0
  O  O46  1  0.66160000  0.11030000  0.88970000  1.0
  O  O47  1  0.88970000  0.33840000  0.88970000  1.0
  O  O48  1  0.11030000  0.88970000  0.33840000  1.0
  O  O49  1  0.11030000  0.66160000  0.11030000  1.0
  O  O50  1  0.33840000  0.88970000  0.11030000  1.0
  O  O51  1  0.11030000  0.88970000  0.66160000  1.0
  O  O52  1  0.11030000  0.66160000  0.88970000  1.0
  O  O53  1  0.33840000  0.88970000  0.88970000  1.0
  O  O54  1  0.88970000  0.88970000  0.66160000  1.0
  O  O55  1  0.66160000  0.88970000  0.88970000  1.0
  O  O56  1  0.88970000  0.66160000  0.88970000  1.0
  O  O57  1  0.88970000  0.88970000  0.33840000  1.0
  O  O58  1  0.66160000  0.88970000  0.11030000  1.0
  O  O59  1  0.88970000  0.66160000  0.11030000  1.0
  O  O60  1  0.00000000  0.29670000  0.29670000  1.0
  O  O61  1  0.29670000  0.00000000  0.29670000  1.0
  O  O62  1  0.29670000  0.29670000  0.00000000  1.0
  O  O63  1  0.00000000  0.29670000  0.70330000  1.0
  O  O64  1  0.29670000  0.00000000  0.70330000  1.0
  O  O65  1  0.70330000  0.00000000  0.29670000  1.0
  O  O66  1  0.70330000  0.29670000  0.00000000  1.0
  O  O67  1  0.70330000  0.00000000  0.70330000  1.0
  O  O68  1  0.00000000  0.70330000  0.29670000  1.0
  O  O69  1  0.29670000  0.70330000  0.00000000  1.0
  O  O70  1  0.00000000  0.70330000  0.70330000  1.0
  O  O71  1  0.70330000  0.70330000  0.00000000  1.0
