# generated using pymatgen
data_SiO2
_symmetry_space_group_name_H-M   I-4m2
_cell_length_a   20.27000000
_cell_length_b   20.27000000
_cell_length_c   13.45900000
_cell_angle_alpha   90.00000000
_cell_angle_beta   90.00000000
_cell_angle_gamma   90.00000000
_symmetry_Int_Tables_number   119
_chemical_formula_structural   SiO2
_chemical_formula_sum   'Si96 O192'
_cell_volume   5529.93836110
_cell_formula_units_Z   96
loop_
 _symmetry_equiv_pos_site_id
 _symmetry_equiv_pos_as_xyz
  1  'x, y, z'
  2  'y, -x, -z'
  3  '-x, -y, z'
  4  '-y, x, -z'
  5  '-x, y, z'
  6  '-y, -x, -z'
  7  'x, -y, z'
  8  'y, x, -z'
  9  'x+1/2, y+1/2, z+1/2'
  10  'y+1/2, -x+1/2, -z+1/2'
  11  '-x+1/2, -y+1/2, z+1/2'
  12  '-y+1/2, x+1/2, -z+1/2'
  13  '-x+1/2, y+1/2, z+1/2'
  14  '-y+1/2, -x+1/2, -z+1/2'
  15  'x+1/2, -y+1/2, z+1/2'
  16  'y+1/2, x+1/2, -z+1/2'
loop_
 _atom_site_type_symbol
 _atom_site_label
 _atom_site_symmetry_multiplicity
 _atom_site_fract_x
 _atom_site_fract_y
 _atom_site_fract_z
 _atom_site_occupancy
  Si  Si0  16  0.07560000  0.37990000  0.35440000  1
  Si  Si1  16  0.07600000  0.30630000  0.01600000  1
  Si  Si2  16  0.07680000  0.22920000  0.36180000  1
  Si  Si3  16  0.12030000  0.18580000  0.15360000  1
  Si  Si4  16  0.18570000  0.27790000  0.85610000  1
  Si  Si5  8  0.07620000  0.07620000  0.00000000  1
  Si  Si6  8  0.19300000  0.19300000  0.50000000  1
  O  O7  16  0.08470000  0.37860000  0.06380000  1
  O  O8  16  0.08880000  0.18560000  0.26340000  1
  O  O9  16  0.09500000  0.12200000  0.09350000  1
  O  O10  16  0.09760000  0.25160000  0.09620000  1
  O  O11  16  0.09830000  0.30440000  0.34050000  1
  O  O12  16  0.12070000  0.20020000  0.45140000  1
  O  O13  16  0.12190000  0.30010000  0.91880000  1
  O  O14  16  0.18400000  0.19940000  0.83850000  1
  O  O15  16  0.20240000  0.24830000  0.58460000  1
  O  O16  8  0.00000000  0.08760000  0.97100000  1
  O  O17  8  0.00000000  0.22670000  0.39190000  1
  O  O18  8  0.00000000  0.29520000  0.98550000  1
  O  O19  8  0.00000000  0.38180000  0.39120000  1
  O  O20  8  0.08180000  0.41820000  0.25000000  1
  O  O21  8  0.18520000  0.31480000  0.75000000  1
