# generated using pymatgen
data_SiO2
_symmetry_space_group_name_H-M   'P 1'
_cell_length_a   20.27000000
_cell_length_b   20.27000000
_cell_length_c   13.45900000
_cell_angle_alpha   90.00000000
_cell_angle_beta   90.00000000
_cell_angle_gamma   90.00000000
_symmetry_Int_Tables_number   1
_chemical_formula_structural   SiO2
_chemical_formula_sum   'Si96 O192'
_cell_volume   5529.93836066
_cell_formula_units_Z   96
loop_
 _symmetry_equiv_pos_site_id
 _symmetry_equiv_pos_as_xyz
  1  'x, y, z'
loop_
 _atom_site_type_symbol
 _atom_site_label
 _atom_site_symmetry_multiplicity
 _atom_site_fract_x
 _atom_site_fract_y
 _atom_site_fract_z
 _atom_site_occupancy
  Si  Si0  1  0.87990000  0.57560000  0.14560000  1.0
  Si  Si1  1  0.92440000  0.37990000  0.35440000  1.0
  Si  Si2  1  0.12010000  0.42440000  0.14560000  1.0
  Si  Si3  1  0.07560000  0.62010000  0.35440000  1.0
  Si  Si4  1  0.87990000  0.42440000  0.14560000  1.0
  Si  Si5  1  0.92440000  0.62010000  0.35440000  1.0
  Si  Si6  1  0.12010000  0.57560000  0.14560000  1.0
  Si  Si7  1  0.07560000  0.37990000  0.35440000  1.0
  Si  Si8  1  0.80630000  0.57600000  0.48400000  1.0
  Si  Si9  1  0.92400000  0.30630000  0.01600000  1.0
  Si  Si10  1  0.19370000  0.42400000  0.48400000  1.0
  Si  Si11  1  0.07600000  0.69370000  0.01600000  1.0
  Si  Si12  1  0.80630000  0.42400000  0.48400000  1.0
  Si  Si13  1  0.92400000  0.69370000  0.01600000  1.0
  Si  Si14  1  0.19370000  0.57600000  0.48400000  1.0
  Si  Si15  1  0.07600000  0.30630000  0.01600000  1.0
  Si  Si16  1  0.72920000  0.57680000  0.13820000  1.0
  Si  Si17  1  0.92320000  0.22920000  0.36180000  1.0
  Si  Si18  1  0.27080000  0.42320000  0.13820000  1.0
  Si  Si19  1  0.07680000  0.77080000  0.36180000  1.0
  Si  Si20  1  0.72920000  0.42320000  0.13820000  1.0
  Si  Si21  1  0.92320000  0.77080000  0.36180000  1.0
  Si  Si22  1  0.27080000  0.57680000  0.13820000  1.0
  Si  Si23  1  0.07680000  0.22920000  0.36180000  1.0
  Si  Si24  1  0.68580000  0.62030000  0.34640000  1.0
  Si  Si25  1  0.87970000  0.18580000  0.15360000  1.0
  Si  Si26  1  0.31420000  0.37970000  0.34640000  1.0
  Si  Si27  1  0.12030000  0.81420000  0.15360000  1.0
  Si  Si28  1  0.68580000  0.37970000  0.34640000  1.0
  Si  Si29  1  0.87970000  0.81420000  0.15360000  1.0
  Si  Si30  1  0.31420000  0.62030000  0.34640000  1.0
  Si  Si31  1  0.12030000  0.18580000  0.15360000  1.0
  Si  Si32  1  0.77790000  0.68570000  0.64390000  1.0
  Si  Si33  1  0.81430000  0.27790000  0.85610000  1.0
  Si  Si34  1  0.22210000  0.31430000  0.64390000  1.0
  Si  Si35  1  0.18570000  0.72210000  0.85610000  1.0
  Si  Si36  1  0.77790000  0.31430000  0.64390000  1.0
  Si  Si37  1  0.81430000  0.72210000  0.85610000  1.0
  Si  Si38  1  0.22210000  0.68570000  0.64390000  1.0
  Si  Si39  1  0.18570000  0.27790000  0.85610000  1.0
  Si  Si40  1  0.57620000  0.57620000  0.50000000  1.0
  Si  Si41  1  0.42380000  0.57620000  0.50000000  1.0
  Si  Si42  1  0.92380000  0.92380000  0.00000000  1.0
  Si  Si43  1  0.07620000  0.92380000  0.00000000  1.0
  Si  Si44  1  0.69300000  0.69300000  0.00000000  1.0
  Si  Si45  1  0.30700000  0.69300000  0.00000000  1.0
  Si  Si46  1  0.80700000  0.80700000  0.50000000  1.0
  Si  Si47  1  0.19300000  0.80700000  0.50000000  1.0
  Si  Si48  1  0.37990000  0.07560000  0.64560000  1.0
  Si  Si49  1  0.42440000  0.87990000  0.85440000  1.0
  Si  Si50  1  0.62010000  0.92440000  0.64560000  1.0
  Si  Si51  1  0.57560000  0.12010000  0.85440000  1.0
  Si  Si52  1  0.37990000  0.92440000  0.64560000  1.0
  Si  Si53  1  0.42440000  0.12010000  0.85440000  1.0
  Si  Si54  1  0.62010000  0.07560000  0.64560000  1.0
  Si  Si55  1  0.57560000  0.87990000  0.85440000  1.0
  Si  Si56  1  0.30630000  0.07600000  0.98400000  1.0
  Si  Si57  1  0.42400000  0.80630000  0.51600000  1.0
  Si  Si58  1  0.69370000  0.92400000  0.98400000  1.0
  Si  Si59  1  0.57600000  0.19370000  0.51600000  1.0
  Si  Si60  1  0.30630000  0.92400000  0.98400000  1.0
  Si  Si61  1  0.42400000  0.19370000  0.51600000  1.0
  Si  Si62  1  0.69370000  0.07600000  0.98400000  1.0
  Si  Si63  1  0.57600000  0.80630000  0.51600000  1.0
  Si  Si64  1  0.22920000  0.07680000  0.63820000  1.0
  Si  Si65  1  0.42320000  0.72920000  0.86180000  1.0
  Si  Si66  1  0.77080000  0.92320000  0.63820000  1.0
  Si  Si67  1  0.57680000  0.27080000  0.86180000  1.0
  Si  Si68  1  0.22920000  0.92320000  0.63820000  1.0
  Si  Si69  1  0.42320000  0.27080000  0.86180000  1.0
  Si  Si70  1  0.77080000  0.07680000  0.63820000  1.0
  Si  Si71  1  0.57680000  0.72920000  0.86180000  1.0
  Si  Si72  1  0.18580000  0.12030000  0.84640000  1.0
  Si  Si73  1  0.37970000  0.68580000  0.65360000  1.0
  Si  Si74  1  0.81420000  0.87970000  0.84640000  1.0
  Si  Si75  1  0.62030000  0.31420000  0.65360000  1.0
  Si  Si76  1  0.18580000  0.87970000  0.84640000  1.0
  Si  Si77  1  0.37970000  0.31420000  0.65360000  1.0
  Si  Si78  1  0.81420000  0.12030000  0.84640000  1.0
  Si  Si79  1  0.62030000  0.68580000  0.65360000  1.0
  Si  Si80  1  0.27790000  0.18570000  0.14390000  1.0
  Si  Si81  1  0.31430000  0.77790000  0.35610000  1.0
  Si  Si82  1  0.72210000  0.81430000  0.14390000  1.0
  Si  Si83  1  0.68570000  0.22210000  0.35610000  1.0
  Si  Si84  1  0.27790000  0.81430000  0.14390000  1.0
  Si  Si85  1  0.31430000  0.22210000  0.35610000  1.0
  Si  Si86  1  0.72210000  0.18570000  0.14390000  1.0
  Si  Si87  1  0.68570000  0.77790000  0.35610000  1.0
  Si  Si88  1  0.07620000  0.07620000  0.00000000  1.0
  Si  Si89  1  0.92380000  0.07620000  0.00000000  1.0
  Si  Si90  1  0.42380000  0.42380000  0.50000000  1.0
  Si  Si91  1  0.57620000  0.42380000  0.50000000  1.0
  Si  Si92  1  0.19300000  0.19300000  0.50000000  1.0
  Si  Si93  1  0.80700000  0.19300000  0.50000000  1.0
  Si  Si94  1  0.30700000  0.30700000  0.00000000  1.0
  Si  Si95  1  0.69300000  0.30700000  0.00000000  1.0
  O  O96  1  0.87860000  0.58470000  0.43620000  1.0
  O  O97  1  0.91530000  0.37860000  0.06380000  1.0
  O  O98  1  0.12140000  0.41530000  0.43620000  1.0
  O  O99  1  0.08470000  0.62140000  0.06380000  1.0
  O  O100  1  0.87860000  0.41530000  0.43620000  1.0
  O  O101  1  0.91530000  0.62140000  0.06380000  1.0
  O  O102  1  0.12140000  0.58470000  0.43620000  1.0
  O  O103  1  0.08470000  0.37860000  0.06380000  1.0
  O  O104  1  0.68560000  0.58880000  0.23660000  1.0
  O  O105  1  0.91120000  0.18560000  0.26340000  1.0
  O  O106  1  0.31440000  0.41120000  0.23660000  1.0
  O  O107  1  0.08880000  0.81440000  0.26340000  1.0
  O  O108  1  0.68560000  0.41120000  0.23660000  1.0
  O  O109  1  0.91120000  0.81440000  0.26340000  1.0
  O  O110  1  0.31440000  0.58880000  0.23660000  1.0
  O  O111  1  0.08880000  0.18560000  0.26340000  1.0
  O  O112  1  0.62200000  0.59500000  0.40650000  1.0
  O  O113  1  0.90500000  0.12200000  0.09350000  1.0
  O  O114  1  0.37800000  0.40500000  0.40650000  1.0
  O  O115  1  0.09500000  0.87800000  0.09350000  1.0
  O  O116  1  0.62200000  0.40500000  0.40650000  1.0
  O  O117  1  0.90500000  0.87800000  0.09350000  1.0
  O  O118  1  0.37800000  0.59500000  0.40650000  1.0
  O  O119  1  0.09500000  0.12200000  0.09350000  1.0
  O  O120  1  0.75160000  0.59760000  0.40380000  1.0
  O  O121  1  0.90240000  0.25160000  0.09620000  1.0
  O  O122  1  0.24840000  0.40240000  0.40380000  1.0
  O  O123  1  0.09760000  0.74840000  0.09620000  1.0
  O  O124  1  0.75160000  0.40240000  0.40380000  1.0
  O  O125  1  0.90240000  0.74840000  0.09620000  1.0
  O  O126  1  0.24840000  0.59760000  0.40380000  1.0
  O  O127  1  0.09760000  0.25160000  0.09620000  1.0
  O  O128  1  0.80440000  0.59830000  0.15950000  1.0
  O  O129  1  0.90170000  0.30440000  0.34050000  1.0
  O  O130  1  0.19560000  0.40170000  0.15950000  1.0
  O  O131  1  0.09830000  0.69560000  0.34050000  1.0
  O  O132  1  0.80440000  0.40170000  0.15950000  1.0
  O  O133  1  0.90170000  0.69560000  0.34050000  1.0
  O  O134  1  0.19560000  0.59830000  0.15950000  1.0
  O  O135  1  0.09830000  0.30440000  0.34050000  1.0
  O  O136  1  0.70020000  0.62070000  0.04860000  1.0
  O  O137  1  0.87930000  0.20020000  0.45140000  1.0
  O  O138  1  0.29980000  0.37930000  0.04860000  1.0
  O  O139  1  0.12070000  0.79980000  0.45140000  1.0
  O  O140  1  0.70020000  0.37930000  0.04860000  1.0
  O  O141  1  0.87930000  0.79980000  0.45140000  1.0
  O  O142  1  0.29980000  0.62070000  0.04860000  1.0
  O  O143  1  0.12070000  0.20020000  0.45140000  1.0
  O  O144  1  0.80010000  0.62190000  0.58120000  1.0
  O  O145  1  0.87810000  0.30010000  0.91880000  1.0
  O  O146  1  0.19990000  0.37810000  0.58120000  1.0
  O  O147  1  0.12190000  0.69990000  0.91880000  1.0
  O  O148  1  0.80010000  0.37810000  0.58120000  1.0
  O  O149  1  0.87810000  0.69990000  0.91880000  1.0
  O  O150  1  0.19990000  0.62190000  0.58120000  1.0
  O  O151  1  0.12190000  0.30010000  0.91880000  1.0
  O  O152  1  0.69940000  0.68400000  0.66150000  1.0
  O  O153  1  0.81600000  0.19940000  0.83850000  1.0
  O  O154  1  0.30060000  0.31600000  0.66150000  1.0
  O  O155  1  0.18400000  0.80060000  0.83850000  1.0
  O  O156  1  0.69940000  0.31600000  0.66150000  1.0
  O  O157  1  0.81600000  0.80060000  0.83850000  1.0
  O  O158  1  0.30060000  0.68400000  0.66150000  1.0
  O  O159  1  0.18400000  0.19940000  0.83850000  1.0
  O  O160  1  0.74830000  0.70240000  0.91540000  1.0
  O  O161  1  0.79760000  0.24830000  0.58460000  1.0
  O  O162  1  0.25170000  0.29760000  0.91540000  1.0
  O  O163  1  0.20240000  0.75170000  0.58460000  1.0
  O  O164  1  0.74830000  0.29760000  0.91540000  1.0
  O  O165  1  0.79760000  0.75170000  0.58460000  1.0
  O  O166  1  0.25170000  0.70240000  0.91540000  1.0
  O  O167  1  0.20240000  0.24830000  0.58460000  1.0
  O  O168  1  0.58760000  0.50000000  0.52900000  1.0
  O  O169  1  0.00000000  0.08760000  0.97100000  1.0
  O  O170  1  0.41240000  0.50000000  0.52900000  1.0
  O  O171  1  0.00000000  0.91240000  0.97100000  1.0
  O  O172  1  0.72670000  0.50000000  0.10810000  1.0
  O  O173  1  0.00000000  0.22670000  0.39190000  1.0
  O  O174  1  0.27330000  0.50000000  0.10810000  1.0
  O  O175  1  0.00000000  0.77330000  0.39190000  1.0
  O  O176  1  0.79520000  0.50000000  0.51450000  1.0
  O  O177  1  0.00000000  0.29520000  0.98550000  1.0
  O  O178  1  0.20480000  0.50000000  0.51450000  1.0
  O  O179  1  0.00000000  0.70480000  0.98550000  1.0
  O  O180  1  0.88180000  0.50000000  0.10880000  1.0
  O  O181  1  0.00000000  0.38180000  0.39120000  1.0
  O  O182  1  0.11820000  0.50000000  0.10880000  1.0
  O  O183  1  0.00000000  0.61820000  0.39120000  1.0
  O  O184  1  0.91820000  0.58180000  0.25000000  1.0
  O  O185  1  0.91820000  0.41820000  0.25000000  1.0
  O  O186  1  0.08180000  0.41820000  0.25000000  1.0
  O  O187  1  0.08180000  0.58180000  0.25000000  1.0
  O  O188  1  0.81480000  0.68520000  0.75000000  1.0
  O  O189  1  0.81480000  0.31480000  0.75000000  1.0
  O  O190  1  0.18520000  0.31480000  0.75000000  1.0
  O  O191  1  0.18520000  0.68520000  0.75000000  1.0
  O  O192  1  0.37860000  0.08470000  0.93620000  1.0
  O  O193  1  0.41530000  0.87860000  0.56380000  1.0
  O  O194  1  0.62140000  0.91530000  0.93620000  1.0
  O  O195  1  0.58470000  0.12140000  0.56380000  1.0
  O  O196  1  0.37860000  0.91530000  0.93620000  1.0
  O  O197  1  0.41530000  0.12140000  0.56380000  1.0
  O  O198  1  0.62140000  0.08470000  0.93620000  1.0
  O  O199  1  0.58470000  0.87860000  0.56380000  1.0
  O  O200  1  0.18560000  0.08880000  0.73660000  1.0
  O  O201  1  0.41120000  0.68560000  0.76340000  1.0
  O  O202  1  0.81440000  0.91120000  0.73660000  1.0
  O  O203  1  0.58880000  0.31440000  0.76340000  1.0
  O  O204  1  0.18560000  0.91120000  0.73660000  1.0
  O  O205  1  0.41120000  0.31440000  0.76340000  1.0
  O  O206  1  0.81440000  0.08880000  0.73660000  1.0
  O  O207  1  0.58880000  0.68560000  0.76340000  1.0
  O  O208  1  0.12200000  0.09500000  0.90650000  1.0
  O  O209  1  0.40500000  0.62200000  0.59350000  1.0
  O  O210  1  0.87800000  0.90500000  0.90650000  1.0
  O  O211  1  0.59500000  0.37800000  0.59350000  1.0
  O  O212  1  0.12200000  0.90500000  0.90650000  1.0
  O  O213  1  0.40500000  0.37800000  0.59350000  1.0
  O  O214  1  0.87800000  0.09500000  0.90650000  1.0
  O  O215  1  0.59500000  0.62200000  0.59350000  1.0
  O  O216  1  0.25160000  0.09760000  0.90380000  1.0
  O  O217  1  0.40240000  0.75160000  0.59620000  1.0
  O  O218  1  0.74840000  0.90240000  0.90380000  1.0
  O  O219  1  0.59760000  0.24840000  0.59620000  1.0
  O  O220  1  0.25160000  0.90240000  0.90380000  1.0
  O  O221  1  0.40240000  0.24840000  0.59620000  1.0
  O  O222  1  0.74840000  0.09760000  0.90380000  1.0
  O  O223  1  0.59760000  0.75160000  0.59620000  1.0
  O  O224  1  0.30440000  0.09830000  0.65950000  1.0
  O  O225  1  0.40170000  0.80440000  0.84050000  1.0
  O  O226  1  0.69560000  0.90170000  0.65950000  1.0
  O  O227  1  0.59830000  0.19560000  0.84050000  1.0
  O  O228  1  0.30440000  0.90170000  0.65950000  1.0
  O  O229  1  0.40170000  0.19560000  0.84050000  1.0
  O  O230  1  0.69560000  0.09830000  0.65950000  1.0
  O  O231  1  0.59830000  0.80440000  0.84050000  1.0
  O  O232  1  0.20020000  0.12070000  0.54860000  1.0
  O  O233  1  0.37930000  0.70020000  0.95140000  1.0
  O  O234  1  0.79980000  0.87930000  0.54860000  1.0
  O  O235  1  0.62070000  0.29980000  0.95140000  1.0
  O  O236  1  0.20020000  0.87930000  0.54860000  1.0
  O  O237  1  0.37930000  0.29980000  0.95140000  1.0
  O  O238  1  0.79980000  0.12070000  0.54860000  1.0
  O  O239  1  0.62070000  0.70020000  0.95140000  1.0
  O  O240  1  0.30010000  0.12190000  0.08120000  1.0
  O  O241  1  0.37810000  0.80010000  0.41880000  1.0
  O  O242  1  0.69990000  0.87810000  0.08120000  1.0
  O  O243  1  0.62190000  0.19990000  0.41880000  1.0
  O  O244  1  0.30010000  0.87810000  0.08120000  1.0
  O  O245  1  0.37810000  0.19990000  0.41880000  1.0
  O  O246  1  0.69990000  0.12190000  0.08120000  1.0
  O  O247  1  0.62190000  0.80010000  0.41880000  1.0
  O  O248  1  0.19940000  0.18400000  0.16150000  1.0
  O  O249  1  0.31600000  0.69940000  0.33850000  1.0
  O  O250  1  0.80060000  0.81600000  0.16150000  1.0
  O  O251  1  0.68400000  0.30060000  0.33850000  1.0
  O  O252  1  0.19940000  0.81600000  0.16150000  1.0
  O  O253  1  0.31600000  0.30060000  0.33850000  1.0
  O  O254  1  0.80060000  0.18400000  0.16150000  1.0
  O  O255  1  0.68400000  0.69940000  0.33850000  1.0
  O  O256  1  0.24830000  0.20240000  0.41540000  1.0
  O  O257  1  0.29760000  0.74830000  0.08460000  1.0
  O  O258  1  0.75170000  0.79760000  0.41540000  1.0
  O  O259  1  0.70240000  0.25170000  0.08460000  1.0
  O  O260  1  0.24830000  0.79760000  0.41540000  1.0
  O  O261  1  0.29760000  0.25170000  0.08460000  1.0
  O  O262  1  0.75170000  0.20240000  0.41540000  1.0
  O  O263  1  0.70240000  0.74830000  0.08460000  1.0
  O  O264  1  0.08760000  0.00000000  0.02900000  1.0
  O  O265  1  0.50000000  0.58760000  0.47100000  1.0
  O  O266  1  0.91240000  0.00000000  0.02900000  1.0
  O  O267  1  0.50000000  0.41240000  0.47100000  1.0
  O  O268  1  0.22670000  0.00000000  0.60810000  1.0
  O  O269  1  0.50000000  0.72670000  0.89190000  1.0
  O  O270  1  0.77330000  0.00000000  0.60810000  1.0
  O  O271  1  0.50000000  0.27330000  0.89190000  1.0
  O  O272  1  0.29520000  0.00000000  0.01450000  1.0
  O  O273  1  0.50000000  0.79520000  0.48550000  1.0
  O  O274  1  0.70480000  0.00000000  0.01450000  1.0
  O  O275  1  0.50000000  0.20480000  0.48550000  1.0
  O  O276  1  0.38180000  0.00000000  0.60880000  1.0
  O  O277  1  0.50000000  0.88180000  0.89120000  1.0
  O  O278  1  0.61820000  0.00000000  0.60880000  1.0
  O  O279  1  0.50000000  0.11820000  0.89120000  1.0
  O  O280  1  0.41820000  0.08180000  0.75000000  1.0
  O  O281  1  0.41820000  0.91820000  0.75000000  1.0
  O  O282  1  0.58180000  0.91820000  0.75000000  1.0
  O  O283  1  0.58180000  0.08180000  0.75000000  1.0
  O  O284  1  0.31480000  0.18520000  0.25000000  1.0
  O  O285  1  0.31480000  0.81480000  0.25000000  1.0
  O  O286  1  0.68520000  0.81480000  0.25000000  1.0
  O  O287  1  0.68520000  0.18520000  0.25000000  1.0
