# generated using pymatgen
data_SiO2
_symmetry_space_group_name_H-M   Pnma
_cell_length_a   20.09000000
_cell_length_b   19.73800000
_cell_length_c   13.14200000
_cell_angle_alpha   90.00000000
_cell_angle_beta   90.00000000
_cell_angle_gamma   90.00000000
_symmetry_Int_Tables_number   62
_chemical_formula_structural   SiO2
_chemical_formula_sum   'Si96 O192'
_cell_volume   5211.28163164
_cell_formula_units_Z   96
loop_
 _symmetry_equiv_pos_site_id
 _symmetry_equiv_pos_as_xyz
  1  'x, y, z'
  2  '-x, -y, -z'
  3  '-x+1/2, -y, z+1/2'
  4  'x+1/2, y, -z+1/2'
  5  'x+1/2, -y+1/2, -z+1/2'
  6  '-x+1/2, y+1/2, z+1/2'
  7  '-x, y+1/2, -z'
  8  'x, -y+1/2, z'
loop_
 _atom_site_type_symbol
 _atom_site_label
 _atom_site_symmetry_multiplicity
 _atom_site_fract_x
 _atom_site_fract_y
 _atom_site_fract_z
 _atom_site_occupancy
  Si  Si0  8  0.06570000  0.62060000  0.80870000  1
  Si  Si1  8  0.07210000  0.03600000  0.82330000  1
  Si  Si2  8  0.07860000  0.57110000  0.18980000  1
  Si  Si3  8  0.08050000  0.17260000  0.18050000  1
  Si  Si4  8  0.11850000  0.67210000  0.01830000  1
  Si  Si5  8  0.12460000  0.05140000  0.04810000  1
  Si  Si6  8  0.17410000  0.53360000  0.35000000  1
  Si  Si7  8  0.18480000  0.12350000  0.33610000  1
  Si  Si8  8  0.19470000  0.67120000  0.70920000  1
  Si  Si9  8  0.20340000  0.06870000  0.71970000  1
  Si  Si10  8  0.22080000  0.55360000  0.56550000  1
  Si  Si11  8  0.22670000  0.17220000  0.54020000  1
  O  O12  8  0.00120000  0.06990000  0.79820000  1
  O  O13  8  0.00890000  0.14520000  0.21690000  1
  O  O14  8  0.07280000  0.54110000  0.78320000  1
  O  O15  8  0.08090000  0.63300000  0.92750000  1
  O  O16  8  0.08460000  0.03700000  0.94430000  1
  O  O17  8  0.10050000  0.63660000  0.12510000  1
  O  O18  8  0.10280000  0.50340000  0.13260000  1
  O  O19  8  0.10750000  0.12650000  0.08830000  1
  O  O20  8  0.11250000  0.57430000  0.30080000  1
  O  O21  8  0.11770000  0.66300000  0.74060000  1
  O  O22  8  0.13010000  0.07810000  0.76700000  1
  O  O23  8  0.13190000  0.16890000  0.27430000  1
  O  O24  8  0.17030000  0.04450000  0.31550000  1
  O  O25  8  0.17100000  0.53850000  0.47220000  1
  O  O26  8  0.17830000  0.13890000  0.45610000  1
  O  O27  8  0.19760000  0.66870000  0.00030000  1
  O  O28  8  0.20340000  0.04550000  0.02750000  1
  O  O29  8  0.20640000  0.50100000  0.65640000  1
  O  O30  8  0.20900000  0.62960000  0.60600000  1
  O  O31  8  0.22010000  0.13130000  0.64560000  1
  O  O32  8  0.24100000  0.64180000  0.79900000  1
  O  O33  8  0.24290000  0.56630000  0.31060000  1
  O  O34  4  0.07370000  0.25000000  0.14310000  1
  O  O35  4  0.09480000  0.75000000  0.02050000  1
  O  O36  4  0.20570000  0.25000000  0.55790000  1
  O  O37  4  0.21160000  0.75000000  0.69130000  1
