# generated using pymatgen
data_SiO2
_symmetry_space_group_name_H-M   'P 1'
_cell_length_a   13.14200000
_cell_length_b   19.73800000
_cell_length_c   20.09000000
_cell_angle_alpha   90.00000000
_cell_angle_beta   90.00000000
_cell_angle_gamma   90.00000000
_symmetry_Int_Tables_number   1
_chemical_formula_structural   SiO2
_chemical_formula_sum   'Si96 O192'
_cell_volume   5211.28163164
_cell_formula_units_Z   96
loop_
 _symmetry_equiv_pos_site_id
 _symmetry_equiv_pos_as_xyz
  1  'x, y, z'
loop_
 _atom_site_type_symbol
 _atom_site_label
 _atom_site_symmetry_multiplicity
 _atom_site_fract_x
 _atom_site_fract_y
 _atom_site_fract_z
 _atom_site_occupancy
  Si  Si0  1  0.80870000  0.62060000  0.93430000  1.0
  Si  Si1  1  0.19130000  0.37940000  0.06570000  1.0
  Si  Si2  1  0.30870000  0.37940000  0.56570000  1.0
  Si  Si3  1  0.69130000  0.62060000  0.43430000  1.0
  Si  Si4  1  0.69130000  0.87940000  0.43430000  1.0
  Si  Si5  1  0.30870000  0.12060000  0.56570000  1.0
  Si  Si6  1  0.19130000  0.12060000  0.06570000  1.0
  Si  Si7  1  0.80870000  0.87940000  0.93430000  1.0
  Si  Si8  1  0.82330000  0.03600000  0.92790000  1.0
  Si  Si9  1  0.17670000  0.96400000  0.07210000  1.0
  Si  Si10  1  0.32330000  0.96400000  0.57210000  1.0
  Si  Si11  1  0.67670000  0.03600000  0.42790000  1.0
  Si  Si12  1  0.67670000  0.46400000  0.42790000  1.0
  Si  Si13  1  0.32330000  0.53600000  0.57210000  1.0
  Si  Si14  1  0.17670000  0.53600000  0.07210000  1.0
  Si  Si15  1  0.82330000  0.46400000  0.92790000  1.0
  Si  Si16  1  0.18980000  0.57110000  0.92140000  1.0
  Si  Si17  1  0.81020000  0.42890000  0.07860000  1.0
  Si  Si18  1  0.68980000  0.42890000  0.57860000  1.0
  Si  Si19  1  0.31020000  0.57110000  0.42140000  1.0
  Si  Si20  1  0.31020000  0.92890000  0.42140000  1.0
  Si  Si21  1  0.68980000  0.07110000  0.57860000  1.0
  Si  Si22  1  0.81020000  0.07110000  0.07860000  1.0
  Si  Si23  1  0.18980000  0.92890000  0.92140000  1.0
  Si  Si24  1  0.18050000  0.17260000  0.91950000  1.0
  Si  Si25  1  0.81950000  0.82740000  0.08050000  1.0
  Si  Si26  1  0.68050000  0.82740000  0.58050000  1.0
  Si  Si27  1  0.31950000  0.17260000  0.41950000  1.0
  Si  Si28  1  0.31950000  0.32740000  0.41950000  1.0
  Si  Si29  1  0.68050000  0.67260000  0.58050000  1.0
  Si  Si30  1  0.81950000  0.67260000  0.08050000  1.0
  Si  Si31  1  0.18050000  0.32740000  0.91950000  1.0
  Si  Si32  1  0.01830000  0.67210000  0.88150000  1.0
  Si  Si33  1  0.98170000  0.32790000  0.11850000  1.0
  Si  Si34  1  0.51830000  0.32790000  0.61850000  1.0
  Si  Si35  1  0.48170000  0.67210000  0.38150000  1.0
  Si  Si36  1  0.48170000  0.82790000  0.38150000  1.0
  Si  Si37  1  0.51830000  0.17210000  0.61850000  1.0
  Si  Si38  1  0.98170000  0.17210000  0.11850000  1.0
  Si  Si39  1  0.01830000  0.82790000  0.88150000  1.0
  Si  Si40  1  0.04810000  0.05140000  0.87540000  1.0
  Si  Si41  1  0.95190000  0.94860000  0.12460000  1.0
  Si  Si42  1  0.54810000  0.94860000  0.62460000  1.0
  Si  Si43  1  0.45190000  0.05140000  0.37540000  1.0
  Si  Si44  1  0.45190000  0.44860000  0.37540000  1.0
  Si  Si45  1  0.54810000  0.55140000  0.62460000  1.0
  Si  Si46  1  0.95190000  0.55140000  0.12460000  1.0
  Si  Si47  1  0.04810000  0.44860000  0.87540000  1.0
  Si  Si48  1  0.35000000  0.53360000  0.82590000  1.0
  Si  Si49  1  0.65000000  0.46640000  0.17410000  1.0
  Si  Si50  1  0.85000000  0.46640000  0.67410000  1.0
  Si  Si51  1  0.15000000  0.53360000  0.32590000  1.0
  Si  Si52  1  0.15000000  0.96640000  0.32590000  1.0
  Si  Si53  1  0.85000000  0.03360000  0.67410000  1.0
  Si  Si54  1  0.65000000  0.03360000  0.17410000  1.0
  Si  Si55  1  0.35000000  0.96640000  0.82590000  1.0
  Si  Si56  1  0.33610000  0.12350000  0.81520000  1.0
  Si  Si57  1  0.66390000  0.87650000  0.18480000  1.0
  Si  Si58  1  0.83610000  0.87650000  0.68480000  1.0
  Si  Si59  1  0.16390000  0.12350000  0.31520000  1.0
  Si  Si60  1  0.16390000  0.37650000  0.31520000  1.0
  Si  Si61  1  0.83610000  0.62350000  0.68480000  1.0
  Si  Si62  1  0.66390000  0.62350000  0.18480000  1.0
  Si  Si63  1  0.33610000  0.37650000  0.81520000  1.0
  Si  Si64  1  0.70920000  0.67120000  0.80530000  1.0
  Si  Si65  1  0.29080000  0.32880000  0.19470000  1.0
  Si  Si66  1  0.20920000  0.32880000  0.69470000  1.0
  Si  Si67  1  0.79080000  0.67120000  0.30530000  1.0
  Si  Si68  1  0.79080000  0.82880000  0.30530000  1.0
  Si  Si69  1  0.20920000  0.17120000  0.69470000  1.0
  Si  Si70  1  0.29080000  0.17120000  0.19470000  1.0
  Si  Si71  1  0.70920000  0.82880000  0.80530000  1.0
  Si  Si72  1  0.71970000  0.06870000  0.79660000  1.0
  Si  Si73  1  0.28030000  0.93130000  0.20340000  1.0
  Si  Si74  1  0.21970000  0.93130000  0.70340000  1.0
  Si  Si75  1  0.78030000  0.06870000  0.29660000  1.0
  Si  Si76  1  0.78030000  0.43130000  0.29660000  1.0
  Si  Si77  1  0.21970000  0.56870000  0.70340000  1.0
  Si  Si78  1  0.28030000  0.56870000  0.20340000  1.0
  Si  Si79  1  0.71970000  0.43130000  0.79660000  1.0
  Si  Si80  1  0.56550000  0.55360000  0.77920000  1.0
  Si  Si81  1  0.43450000  0.44640000  0.22080000  1.0
  Si  Si82  1  0.06550000  0.44640000  0.72080000  1.0
  Si  Si83  1  0.93450000  0.55360000  0.27920000  1.0
  Si  Si84  1  0.93450000  0.94640000  0.27920000  1.0
  Si  Si85  1  0.06550000  0.05360000  0.72080000  1.0
  Si  Si86  1  0.43450000  0.05360000  0.22080000  1.0
  Si  Si87  1  0.56550000  0.94640000  0.77920000  1.0
  Si  Si88  1  0.54020000  0.17220000  0.77330000  1.0
  Si  Si89  1  0.45980000  0.82780000  0.22670000  1.0
  Si  Si90  1  0.04020000  0.82780000  0.72670000  1.0
  Si  Si91  1  0.95980000  0.17220000  0.27330000  1.0
  Si  Si92  1  0.95980000  0.32780000  0.27330000  1.0
  Si  Si93  1  0.04020000  0.67220000  0.72670000  1.0
  Si  Si94  1  0.45980000  0.67220000  0.22670000  1.0
  Si  Si95  1  0.54020000  0.32780000  0.77330000  1.0
  O  O96  1  0.79820000  0.06990000  0.99880000  1.0
  O  O97  1  0.20180000  0.93010000  0.00120000  1.0
  O  O98  1  0.29820000  0.93010000  0.50120000  1.0
  O  O99  1  0.70180000  0.06990000  0.49880000  1.0
  O  O100  1  0.70180000  0.43010000  0.49880000  1.0
  O  O101  1  0.29820000  0.56990000  0.50120000  1.0
  O  O102  1  0.20180000  0.56990000  0.00120000  1.0
  O  O103  1  0.79820000  0.43010000  0.99880000  1.0
  O  O104  1  0.21690000  0.14520000  0.99110000  1.0
  O  O105  1  0.78310000  0.85480000  0.00890000  1.0
  O  O106  1  0.71690000  0.85480000  0.50890000  1.0
  O  O107  1  0.28310000  0.14520000  0.49110000  1.0
  O  O108  1  0.28310000  0.35480000  0.49110000  1.0
  O  O109  1  0.71690000  0.64520000  0.50890000  1.0
  O  O110  1  0.78310000  0.64520000  0.00890000  1.0
  O  O111  1  0.21690000  0.35480000  0.99110000  1.0
  O  O112  1  0.78320000  0.54110000  0.92720000  1.0
  O  O113  1  0.21680000  0.45890000  0.07280000  1.0
  O  O114  1  0.28320000  0.45890000  0.57280000  1.0
  O  O115  1  0.71680000  0.54110000  0.42720000  1.0
  O  O116  1  0.71680000  0.95890000  0.42720000  1.0
  O  O117  1  0.28320000  0.04110000  0.57280000  1.0
  O  O118  1  0.21680000  0.04110000  0.07280000  1.0
  O  O119  1  0.78320000  0.95890000  0.92720000  1.0
  O  O120  1  0.92750000  0.63300000  0.91910000  1.0
  O  O121  1  0.07250000  0.36700000  0.08090000  1.0
  O  O122  1  0.42750000  0.36700000  0.58090000  1.0
  O  O123  1  0.57250000  0.63300000  0.41910000  1.0
  O  O124  1  0.57250000  0.86700000  0.41910000  1.0
  O  O125  1  0.42750000  0.13300000  0.58090000  1.0
  O  O126  1  0.07250000  0.13300000  0.08090000  1.0
  O  O127  1  0.92750000  0.86700000  0.91910000  1.0
  O  O128  1  0.94430000  0.03700000  0.91540000  1.0
  O  O129  1  0.05570000  0.96300000  0.08460000  1.0
  O  O130  1  0.44430000  0.96300000  0.58460000  1.0
  O  O131  1  0.55570000  0.03700000  0.41540000  1.0
  O  O132  1  0.55570000  0.46300000  0.41540000  1.0
  O  O133  1  0.44430000  0.53700000  0.58460000  1.0
  O  O134  1  0.05570000  0.53700000  0.08460000  1.0
  O  O135  1  0.94430000  0.46300000  0.91540000  1.0
  O  O136  1  0.12510000  0.63660000  0.89950000  1.0
  O  O137  1  0.87490000  0.36340000  0.10050000  1.0
  O  O138  1  0.62510000  0.36340000  0.60050000  1.0
  O  O139  1  0.37490000  0.63660000  0.39950000  1.0
  O  O140  1  0.37490000  0.86340000  0.39950000  1.0
  O  O141  1  0.62510000  0.13660000  0.60050000  1.0
  O  O142  1  0.87490000  0.13660000  0.10050000  1.0
  O  O143  1  0.12510000  0.86340000  0.89950000  1.0
  O  O144  1  0.13260000  0.50340000  0.89720000  1.0
  O  O145  1  0.86740000  0.49660000  0.10280000  1.0
  O  O146  1  0.63260000  0.49660000  0.60280000  1.0
  O  O147  1  0.36740000  0.50340000  0.39720000  1.0
  O  O148  1  0.36740000  0.99660000  0.39720000  1.0
  O  O149  1  0.63260000  0.00340000  0.60280000  1.0
  O  O150  1  0.86740000  0.00340000  0.10280000  1.0
  O  O151  1  0.13260000  0.99660000  0.89720000  1.0
  O  O152  1  0.08830000  0.12650000  0.89250000  1.0
  O  O153  1  0.91170000  0.87350000  0.10750000  1.0
  O  O154  1  0.58830000  0.87350000  0.60750000  1.0
  O  O155  1  0.41170000  0.12650000  0.39250000  1.0
  O  O156  1  0.41170000  0.37350000  0.39250000  1.0
  O  O157  1  0.58830000  0.62650000  0.60750000  1.0
  O  O158  1  0.91170000  0.62650000  0.10750000  1.0
  O  O159  1  0.08830000  0.37350000  0.89250000  1.0
  O  O160  1  0.30080000  0.57430000  0.88750000  1.0
  O  O161  1  0.69920000  0.42570000  0.11250000  1.0
  O  O162  1  0.80080000  0.42570000  0.61250000  1.0
  O  O163  1  0.19920000  0.57430000  0.38750000  1.0
  O  O164  1  0.19920000  0.92570000  0.38750000  1.0
  O  O165  1  0.80080000  0.07430000  0.61250000  1.0
  O  O166  1  0.69920000  0.07430000  0.11250000  1.0
  O  O167  1  0.30080000  0.92570000  0.88750000  1.0
  O  O168  1  0.74060000  0.66300000  0.88230000  1.0
  O  O169  1  0.25940000  0.33700000  0.11770000  1.0
  O  O170  1  0.24060000  0.33700000  0.61770000  1.0
  O  O171  1  0.75940000  0.66300000  0.38230000  1.0
  O  O172  1  0.75940000  0.83700000  0.38230000  1.0
  O  O173  1  0.24060000  0.16300000  0.61770000  1.0
  O  O174  1  0.25940000  0.16300000  0.11770000  1.0
  O  O175  1  0.74060000  0.83700000  0.88230000  1.0
  O  O176  1  0.76700000  0.07810000  0.86990000  1.0
  O  O177  1  0.23300000  0.92190000  0.13010000  1.0
  O  O178  1  0.26700000  0.92190000  0.63010000  1.0
  O  O179  1  0.73300000  0.07810000  0.36990000  1.0
  O  O180  1  0.73300000  0.42190000  0.36990000  1.0
  O  O181  1  0.26700000  0.57810000  0.63010000  1.0
  O  O182  1  0.23300000  0.57810000  0.13010000  1.0
  O  O183  1  0.76700000  0.42190000  0.86990000  1.0
  O  O184  1  0.27430000  0.16890000  0.86810000  1.0
  O  O185  1  0.72570000  0.83110000  0.13190000  1.0
  O  O186  1  0.77430000  0.83110000  0.63190000  1.0
  O  O187  1  0.22570000  0.16890000  0.36810000  1.0
  O  O188  1  0.22570000  0.33110000  0.36810000  1.0
  O  O189  1  0.77430000  0.66890000  0.63190000  1.0
  O  O190  1  0.72570000  0.66890000  0.13190000  1.0
  O  O191  1  0.27430000  0.33110000  0.86810000  1.0
  O  O192  1  0.31550000  0.04450000  0.82970000  1.0
  O  O193  1  0.68450000  0.95550000  0.17030000  1.0
  O  O194  1  0.81550000  0.95550000  0.67030000  1.0
  O  O195  1  0.18450000  0.04450000  0.32970000  1.0
  O  O196  1  0.18450000  0.45550000  0.32970000  1.0
  O  O197  1  0.81550000  0.54450000  0.67030000  1.0
  O  O198  1  0.68450000  0.54450000  0.17030000  1.0
  O  O199  1  0.31550000  0.45550000  0.82970000  1.0
  O  O200  1  0.47220000  0.53850000  0.82900000  1.0
  O  O201  1  0.52780000  0.46150000  0.17100000  1.0
  O  O202  1  0.97220000  0.46150000  0.67100000  1.0
  O  O203  1  0.02780000  0.53850000  0.32900000  1.0
  O  O204  1  0.02780000  0.96150000  0.32900000  1.0
  O  O205  1  0.97220000  0.03850000  0.67100000  1.0
  O  O206  1  0.52780000  0.03850000  0.17100000  1.0
  O  O207  1  0.47220000  0.96150000  0.82900000  1.0
  O  O208  1  0.45610000  0.13890000  0.82170000  1.0
  O  O209  1  0.54390000  0.86110000  0.17830000  1.0
  O  O210  1  0.95610000  0.86110000  0.67830000  1.0
  O  O211  1  0.04390000  0.13890000  0.32170000  1.0
  O  O212  1  0.04390000  0.36110000  0.32170000  1.0
  O  O213  1  0.95610000  0.63890000  0.67830000  1.0
  O  O214  1  0.54390000  0.63890000  0.17830000  1.0
  O  O215  1  0.45610000  0.36110000  0.82170000  1.0
  O  O216  1  0.00030000  0.66870000  0.80240000  1.0
  O  O217  1  0.99970000  0.33130000  0.19760000  1.0
  O  O218  1  0.50030000  0.33130000  0.69760000  1.0
  O  O219  1  0.49970000  0.66870000  0.30240000  1.0
  O  O220  1  0.49970000  0.83130000  0.30240000  1.0
  O  O221  1  0.50030000  0.16870000  0.69760000  1.0
  O  O222  1  0.99970000  0.16870000  0.19760000  1.0
  O  O223  1  0.00030000  0.83130000  0.80240000  1.0
  O  O224  1  0.02750000  0.04550000  0.79660000  1.0
  O  O225  1  0.97250000  0.95450000  0.20340000  1.0
  O  O226  1  0.52750000  0.95450000  0.70340000  1.0
  O  O227  1  0.47250000  0.04550000  0.29660000  1.0
  O  O228  1  0.47250000  0.45450000  0.29660000  1.0
  O  O229  1  0.52750000  0.54550000  0.70340000  1.0
  O  O230  1  0.97250000  0.54550000  0.20340000  1.0
  O  O231  1  0.02750000  0.45450000  0.79660000  1.0
  O  O232  1  0.65640000  0.50100000  0.79360000  1.0
  O  O233  1  0.34360000  0.49900000  0.20640000  1.0
  O  O234  1  0.15640000  0.49900000  0.70640000  1.0
  O  O235  1  0.84360000  0.50100000  0.29360000  1.0
  O  O236  1  0.84360000  0.99900000  0.29360000  1.0
  O  O237  1  0.15640000  0.00100000  0.70640000  1.0
  O  O238  1  0.34360000  0.00100000  0.20640000  1.0
  O  O239  1  0.65640000  0.99900000  0.79360000  1.0
  O  O240  1  0.60600000  0.62960000  0.79100000  1.0
  O  O241  1  0.39400000  0.37040000  0.20900000  1.0
  O  O242  1  0.10600000  0.37040000  0.70900000  1.0
  O  O243  1  0.89400000  0.62960000  0.29100000  1.0
  O  O244  1  0.89400000  0.87040000  0.29100000  1.0
  O  O245  1  0.10600000  0.12960000  0.70900000  1.0
  O  O246  1  0.39400000  0.12960000  0.20900000  1.0
  O  O247  1  0.60600000  0.87040000  0.79100000  1.0
  O  O248  1  0.64560000  0.13130000  0.77990000  1.0
  O  O249  1  0.35440000  0.86870000  0.22010000  1.0
  O  O250  1  0.14560000  0.86870000  0.72010000  1.0
  O  O251  1  0.85440000  0.13130000  0.27990000  1.0
  O  O252  1  0.85440000  0.36870000  0.27990000  1.0
  O  O253  1  0.14560000  0.63130000  0.72010000  1.0
  O  O254  1  0.35440000  0.63130000  0.22010000  1.0
  O  O255  1  0.64560000  0.36870000  0.77990000  1.0
  O  O256  1  0.79900000  0.64180000  0.75900000  1.0
  O  O257  1  0.20100000  0.35820000  0.24100000  1.0
  O  O258  1  0.29900000  0.35820000  0.74100000  1.0
  O  O259  1  0.70100000  0.64180000  0.25900000  1.0
  O  O260  1  0.70100000  0.85820000  0.25900000  1.0
  O  O261  1  0.29900000  0.14180000  0.74100000  1.0
  O  O262  1  0.20100000  0.14180000  0.24100000  1.0
  O  O263  1  0.79900000  0.85820000  0.75900000  1.0
  O  O264  1  0.31060000  0.56630000  0.75710000  1.0
  O  O265  1  0.68940000  0.43370000  0.24290000  1.0
  O  O266  1  0.81060000  0.43370000  0.74290000  1.0
  O  O267  1  0.18940000  0.56630000  0.25710000  1.0
  O  O268  1  0.18940000  0.93370000  0.25710000  1.0
  O  O269  1  0.81060000  0.06630000  0.74290000  1.0
  O  O270  1  0.68940000  0.06630000  0.24290000  1.0
  O  O271  1  0.31060000  0.93370000  0.75710000  1.0
  O  O272  1  0.14310000  0.25000000  0.92630000  1.0
  O  O273  1  0.85690000  0.75000000  0.07370000  1.0
  O  O274  1  0.64310000  0.75000000  0.57370000  1.0
  O  O275  1  0.35690000  0.25000000  0.42630000  1.0
  O  O276  1  0.02050000  0.75000000  0.90520000  1.0
  O  O277  1  0.97950000  0.25000000  0.09480000  1.0
  O  O278  1  0.52050000  0.25000000  0.59480000  1.0
  O  O279  1  0.47950000  0.75000000  0.40520000  1.0
  O  O280  1  0.55790000  0.25000000  0.79430000  1.0
  O  O281  1  0.44210000  0.75000000  0.20570000  1.0
  O  O282  1  0.05790000  0.75000000  0.70570000  1.0
  O  O283  1  0.94210000  0.25000000  0.29430000  1.0
  O  O284  1  0.69130000  0.75000000  0.78840000  1.0
  O  O285  1  0.30870000  0.25000000  0.21160000  1.0
  O  O286  1  0.19130000  0.25000000  0.71160000  1.0
  O  O287  1  0.80870000  0.75000000  0.28840000  1.0
