# generated using pymatgen
data_SiO2
_symmetry_space_group_name_H-M   'P 1'
_cell_length_a   18.24600000
_cell_length_b   18.24600000
_cell_length_c   20.55700000
_cell_angle_alpha   90.00000000
_cell_angle_beta   90.00000000
_cell_angle_gamma   90.00000000
_symmetry_Int_Tables_number   1
_chemical_formula_structural   SiO2
_chemical_formula_sum   'Si112 O224'
_cell_volume   6843.76481941
_cell_formula_units_Z   112
loop_
 _symmetry_equiv_pos_site_id
 _symmetry_equiv_pos_as_xyz
  1  'x, y, z'
loop_
 _atom_site_type_symbol
 _atom_site_label
 _atom_site_symmetry_multiplicity
 _atom_site_fract_x
 _atom_site_fract_y
 _atom_site_fract_z
 _atom_site_occupancy
  Si  Si0  1  0.13590000  0.74440000  0.11840000  1.0
  Si  Si1  1  0.75560000  0.63590000  0.61840000  1.0
  Si  Si2  1  0.86410000  0.25560000  0.11840000  1.0
  Si  Si3  1  0.24440000  0.36410000  0.61840000  1.0
  Si  Si4  1  0.36410000  0.24440000  0.61840000  1.0
  Si  Si5  1  0.74440000  0.13590000  0.11840000  1.0
  Si  Si6  1  0.63590000  0.75560000  0.61840000  1.0
  Si  Si7  1  0.25560000  0.86410000  0.11840000  1.0
  Si  Si8  1  0.86410000  0.25560000  0.88160000  1.0
  Si  Si9  1  0.24440000  0.36410000  0.38160000  1.0
  Si  Si10  1  0.13590000  0.74440000  0.88160000  1.0
  Si  Si11  1  0.75560000  0.63590000  0.38160000  1.0
  Si  Si12  1  0.63590000  0.75560000  0.38160000  1.0
  Si  Si13  1  0.25560000  0.86410000  0.88160000  1.0
  Si  Si14  1  0.36410000  0.24440000  0.38160000  1.0
  Si  Si15  1  0.74440000  0.13590000  0.88160000  1.0
  Si  Si16  1  0.13440000  0.74850000  0.26890000  1.0
  Si  Si17  1  0.75150000  0.63440000  0.76890000  1.0
  Si  Si18  1  0.86560000  0.25150000  0.26890000  1.0
  Si  Si19  1  0.24850000  0.36560000  0.76890000  1.0
  Si  Si20  1  0.36560000  0.24850000  0.76890000  1.0
  Si  Si21  1  0.74850000  0.13440000  0.26890000  1.0
  Si  Si22  1  0.63440000  0.75150000  0.76890000  1.0
  Si  Si23  1  0.25150000  0.86560000  0.26890000  1.0
  Si  Si24  1  0.86560000  0.25150000  0.73110000  1.0
  Si  Si25  1  0.24850000  0.36560000  0.23110000  1.0
  Si  Si26  1  0.13440000  0.74850000  0.73110000  1.0
  Si  Si27  1  0.75150000  0.63440000  0.23110000  1.0
  Si  Si28  1  0.63440000  0.75150000  0.23110000  1.0
  Si  Si29  1  0.25150000  0.86560000  0.73110000  1.0
  Si  Si30  1  0.36560000  0.24850000  0.23110000  1.0
  Si  Si31  1  0.74850000  0.13440000  0.73110000  1.0
  Si  Si32  1  0.02710000  0.22080000  0.07420000  1.0
  Si  Si33  1  0.27920000  0.52710000  0.57420000  1.0
  Si  Si34  1  0.97290000  0.77920000  0.07420000  1.0
  Si  Si35  1  0.72080000  0.47290000  0.57420000  1.0
  Si  Si36  1  0.47290000  0.72080000  0.57420000  1.0
  Si  Si37  1  0.22080000  0.02710000  0.07420000  1.0
  Si  Si38  1  0.52710000  0.27920000  0.57420000  1.0
  Si  Si39  1  0.77920000  0.97290000  0.07420000  1.0
  Si  Si40  1  0.97290000  0.77920000  0.92580000  1.0
  Si  Si41  1  0.72080000  0.47290000  0.42580000  1.0
  Si  Si42  1  0.02710000  0.22080000  0.92580000  1.0
  Si  Si43  1  0.27920000  0.52710000  0.42580000  1.0
  Si  Si44  1  0.52710000  0.27920000  0.42580000  1.0
  Si  Si45  1  0.77920000  0.97290000  0.92580000  1.0
  Si  Si46  1  0.47290000  0.72080000  0.42580000  1.0
  Si  Si47  1  0.22080000  0.02710000  0.92580000  1.0
  Si  Si48  1  0.13160000  0.25080000  0.18770000  1.0
  Si  Si49  1  0.24920000  0.63160000  0.68770000  1.0
  Si  Si50  1  0.86840000  0.74920000  0.18770000  1.0
  Si  Si51  1  0.75080000  0.36840000  0.68770000  1.0
  Si  Si52  1  0.36840000  0.75080000  0.68770000  1.0
  Si  Si53  1  0.25080000  0.13160000  0.18770000  1.0
  Si  Si54  1  0.63160000  0.24920000  0.68770000  1.0
  Si  Si55  1  0.74920000  0.86840000  0.18770000  1.0
  Si  Si56  1  0.86840000  0.74920000  0.81230000  1.0
  Si  Si57  1  0.75080000  0.36840000  0.31230000  1.0
  Si  Si58  1  0.13160000  0.25080000  0.81230000  1.0
  Si  Si59  1  0.24920000  0.63160000  0.31230000  1.0
  Si  Si60  1  0.63160000  0.24920000  0.31230000  1.0
  Si  Si61  1  0.74920000  0.86840000  0.81230000  1.0
  Si  Si62  1  0.36840000  0.75080000  0.31230000  1.0
  Si  Si63  1  0.25080000  0.13160000  0.81230000  1.0
  Si  Si64  1  0.02990000  0.22320000  0.30900000  1.0
  Si  Si65  1  0.27680000  0.52990000  0.80900000  1.0
  Si  Si66  1  0.97010000  0.77680000  0.30900000  1.0
  Si  Si67  1  0.72320000  0.47010000  0.80900000  1.0
  Si  Si68  1  0.47010000  0.72320000  0.80900000  1.0
  Si  Si69  1  0.22320000  0.02990000  0.30900000  1.0
  Si  Si70  1  0.52990000  0.27680000  0.80900000  1.0
  Si  Si71  1  0.77680000  0.97010000  0.30900000  1.0
  Si  Si72  1  0.97010000  0.77680000  0.69100000  1.0
  Si  Si73  1  0.72320000  0.47010000  0.19100000  1.0
  Si  Si74  1  0.02990000  0.22320000  0.69100000  1.0
  Si  Si75  1  0.27680000  0.52990000  0.19100000  1.0
  Si  Si76  1  0.52990000  0.27680000  0.19100000  1.0
  Si  Si77  1  0.77680000  0.97010000  0.69100000  1.0
  Si  Si78  1  0.47010000  0.72320000  0.19100000  1.0
  Si  Si79  1  0.22320000  0.02990000  0.69100000  1.0
  Si  Si80  1  0.12950000  0.24850000  0.42610000  1.0
  Si  Si81  1  0.25150000  0.62950000  0.92610000  1.0
  Si  Si82  1  0.87050000  0.75150000  0.42610000  1.0
  Si  Si83  1  0.74850000  0.37050000  0.92610000  1.0
  Si  Si84  1  0.37050000  0.74850000  0.92610000  1.0
  Si  Si85  1  0.24850000  0.12950000  0.42610000  1.0
  Si  Si86  1  0.62950000  0.25150000  0.92610000  1.0
  Si  Si87  1  0.75150000  0.87050000  0.42610000  1.0
  Si  Si88  1  0.87050000  0.75150000  0.57390000  1.0
  Si  Si89  1  0.74850000  0.37050000  0.07390000  1.0
  Si  Si90  1  0.12950000  0.24850000  0.57390000  1.0
  Si  Si91  1  0.25150000  0.62950000  0.07390000  1.0
  Si  Si92  1  0.62950000  0.25150000  0.07390000  1.0
  Si  Si93  1  0.75150000  0.87050000  0.57390000  1.0
  Si  Si94  1  0.37050000  0.74850000  0.07390000  1.0
  Si  Si95  1  0.24850000  0.12950000  0.57390000  1.0
  Si  Si96  1  0.06220000  0.06220000  0.12320000  1.0
  Si  Si97  1  0.43780000  0.56220000  0.62320000  1.0
  Si  Si98  1  0.93780000  0.93780000  0.12320000  1.0
  Si  Si99  1  0.56220000  0.43780000  0.62320000  1.0
  Si  Si100  1  0.93780000  0.93780000  0.87680000  1.0
  Si  Si101  1  0.56220000  0.43780000  0.37680000  1.0
  Si  Si102  1  0.06220000  0.06220000  0.87680000  1.0
  Si  Si103  1  0.43780000  0.56220000  0.37680000  1.0
  Si  Si104  1  0.06220000  0.06220000  0.27240000  1.0
  Si  Si105  1  0.43780000  0.56220000  0.77240000  1.0
  Si  Si106  1  0.93780000  0.93780000  0.27240000  1.0
  Si  Si107  1  0.56220000  0.43780000  0.77240000  1.0
  Si  Si108  1  0.93780000  0.93780000  0.72760000  1.0
  Si  Si109  1  0.56220000  0.43780000  0.22760000  1.0
  Si  Si110  1  0.06220000  0.06220000  0.72760000  1.0
  Si  Si111  1  0.43780000  0.56220000  0.22760000  1.0
  O  O112  1  0.12870000  0.72290000  0.19410000  1.0
  O  O113  1  0.77710000  0.62870000  0.69410000  1.0
  O  O114  1  0.87130000  0.27710000  0.19410000  1.0
  O  O115  1  0.22290000  0.37130000  0.69410000  1.0
  O  O116  1  0.37130000  0.22290000  0.69410000  1.0
  O  O117  1  0.72290000  0.12870000  0.19410000  1.0
  O  O118  1  0.62870000  0.77710000  0.69410000  1.0
  O  O119  1  0.27710000  0.87130000  0.19410000  1.0
  O  O120  1  0.87130000  0.27710000  0.80590000  1.0
  O  O121  1  0.22290000  0.37130000  0.30590000  1.0
  O  O122  1  0.12870000  0.72290000  0.80590000  1.0
  O  O123  1  0.77710000  0.62870000  0.30590000  1.0
  O  O124  1  0.62870000  0.77710000  0.30590000  1.0
  O  O125  1  0.27710000  0.87130000  0.80590000  1.0
  O  O126  1  0.37130000  0.22290000  0.30590000  1.0
  O  O127  1  0.72290000  0.12870000  0.80590000  1.0
  O  O128  1  0.05530000  0.75150000  0.08730000  1.0
  O  O129  1  0.74850000  0.55530000  0.58730000  1.0
  O  O130  1  0.94470000  0.24850000  0.08730000  1.0
  O  O131  1  0.25150000  0.44470000  0.58730000  1.0
  O  O132  1  0.44470000  0.25150000  0.58730000  1.0
  O  O133  1  0.75150000  0.05530000  0.08730000  1.0
  O  O134  1  0.55530000  0.74850000  0.58730000  1.0
  O  O135  1  0.24850000  0.94470000  0.08730000  1.0
  O  O136  1  0.94470000  0.24850000  0.91270000  1.0
  O  O137  1  0.25150000  0.44470000  0.41270000  1.0
  O  O138  1  0.05530000  0.75150000  0.91270000  1.0
  O  O139  1  0.74850000  0.55530000  0.41270000  1.0
  O  O140  1  0.55530000  0.74850000  0.41270000  1.0
  O  O141  1  0.24850000  0.94470000  0.91270000  1.0
  O  O142  1  0.44470000  0.25150000  0.41270000  1.0
  O  O143  1  0.75150000  0.05530000  0.91270000  1.0
  O  O144  1  0.18000000  0.68050000  0.08110000  1.0
  O  O145  1  0.81950000  0.68000000  0.58110000  1.0
  O  O146  1  0.82000000  0.31950000  0.08110000  1.0
  O  O147  1  0.18050000  0.32000000  0.58110000  1.0
  O  O148  1  0.32000000  0.18050000  0.58110000  1.0
  O  O149  1  0.68050000  0.18000000  0.08110000  1.0
  O  O150  1  0.68000000  0.81950000  0.58110000  1.0
  O  O151  1  0.31950000  0.82000000  0.08110000  1.0
  O  O152  1  0.82000000  0.31950000  0.91890000  1.0
  O  O153  1  0.18050000  0.32000000  0.41890000  1.0
  O  O154  1  0.18000000  0.68050000  0.91890000  1.0
  O  O155  1  0.81950000  0.68000000  0.41890000  1.0
  O  O156  1  0.68000000  0.81950000  0.41890000  1.0
  O  O157  1  0.31950000  0.82000000  0.91890000  1.0
  O  O158  1  0.32000000  0.18050000  0.41890000  1.0
  O  O159  1  0.68050000  0.18000000  0.91890000  1.0
  O  O160  1  0.17920000  0.82080000  0.11130000  1.0
  O  O161  1  0.67920000  0.67920000  0.61130000  1.0
  O  O162  1  0.82080000  0.17920000  0.11130000  1.0
  O  O163  1  0.32080000  0.32080000  0.61130000  1.0
  O  O164  1  0.82080000  0.17920000  0.88870000  1.0
  O  O165  1  0.32080000  0.32080000  0.38870000  1.0
  O  O166  1  0.17920000  0.82080000  0.88870000  1.0
  O  O167  1  0.67920000  0.67920000  0.38870000  1.0
  O  O168  1  0.05380000  0.75070000  0.30050000  1.0
  O  O169  1  0.74930000  0.55380000  0.80050000  1.0
  O  O170  1  0.94620000  0.24930000  0.30050000  1.0
  O  O171  1  0.25070000  0.44620000  0.80050000  1.0
  O  O172  1  0.44620000  0.25070000  0.80050000  1.0
  O  O173  1  0.75070000  0.05380000  0.30050000  1.0
  O  O174  1  0.55380000  0.74930000  0.80050000  1.0
  O  O175  1  0.24930000  0.94620000  0.30050000  1.0
  O  O176  1  0.94620000  0.24930000  0.69950000  1.0
  O  O177  1  0.25070000  0.44620000  0.19950000  1.0
  O  O178  1  0.05380000  0.75070000  0.69950000  1.0
  O  O179  1  0.74930000  0.55380000  0.19950000  1.0
  O  O180  1  0.55380000  0.74930000  0.19950000  1.0
  O  O181  1  0.24930000  0.94620000  0.69950000  1.0
  O  O182  1  0.44620000  0.25070000  0.19950000  1.0
  O  O183  1  0.75070000  0.05380000  0.69950000  1.0
  O  O184  1  0.18440000  0.69130000  0.30880000  1.0
  O  O185  1  0.80870000  0.68440000  0.80880000  1.0
  O  O186  1  0.81560000  0.30870000  0.30880000  1.0
  O  O187  1  0.19130000  0.31560000  0.80880000  1.0
  O  O188  1  0.31560000  0.19130000  0.80880000  1.0
  O  O189  1  0.69130000  0.18440000  0.30880000  1.0
  O  O190  1  0.68440000  0.80870000  0.80880000  1.0
  O  O191  1  0.30870000  0.81560000  0.30880000  1.0
  O  O192  1  0.81560000  0.30870000  0.69120000  1.0
  O  O193  1  0.19130000  0.31560000  0.19120000  1.0
  O  O194  1  0.18440000  0.69130000  0.69120000  1.0
  O  O195  1  0.80870000  0.68440000  0.19120000  1.0
  O  O196  1  0.68440000  0.80870000  0.19120000  1.0
  O  O197  1  0.30870000  0.81560000  0.69120000  1.0
  O  O198  1  0.31560000  0.19130000  0.19120000  1.0
  O  O199  1  0.69130000  0.18440000  0.69120000  1.0
  O  O200  1  0.17160000  0.82840000  0.27230000  1.0
  O  O201  1  0.67160000  0.67160000  0.77230000  1.0
  O  O202  1  0.82840000  0.17160000  0.27230000  1.0
  O  O203  1  0.32840000  0.32840000  0.77230000  1.0
  O  O204  1  0.82840000  0.17160000  0.72770000  1.0
  O  O205  1  0.32840000  0.32840000  0.22770000  1.0
  O  O206  1  0.17160000  0.82840000  0.72770000  1.0
  O  O207  1  0.67160000  0.67160000  0.22770000  1.0
  O  O208  1  0.08310000  0.26120000  0.12300000  1.0
  O  O209  1  0.23880000  0.58310000  0.62300000  1.0
  O  O210  1  0.91690000  0.73880000  0.12300000  1.0
  O  O211  1  0.76120000  0.41690000  0.62300000  1.0
  O  O212  1  0.41690000  0.76120000  0.62300000  1.0
  O  O213  1  0.26120000  0.08310000  0.12300000  1.0
  O  O214  1  0.58310000  0.23880000  0.62300000  1.0
  O  O215  1  0.73880000  0.91690000  0.12300000  1.0
  O  O216  1  0.91690000  0.73880000  0.87700000  1.0
  O  O217  1  0.76120000  0.41690000  0.37700000  1.0
  O  O218  1  0.08310000  0.26120000  0.87700000  1.0
  O  O219  1  0.23880000  0.58310000  0.37700000  1.0
  O  O220  1  0.58310000  0.23880000  0.37700000  1.0
  O  O221  1  0.73880000  0.91690000  0.87700000  1.0
  O  O222  1  0.41690000  0.76120000  0.37700000  1.0
  O  O223  1  0.26120000  0.08310000  0.87700000  1.0
  O  O224  1  0.04930000  0.23840000  0.00000000  1.0
  O  O225  1  0.26160000  0.54930000  0.50000000  1.0
  O  O226  1  0.95070000  0.76160000  0.00000000  1.0
  O  O227  1  0.73840000  0.45070000  0.50000000  1.0
  O  O228  1  0.45070000  0.73840000  0.50000000  1.0
  O  O229  1  0.23840000  0.04930000  0.00000000  1.0
  O  O230  1  0.54930000  0.26160000  0.50000000  1.0
  O  O231  1  0.76160000  0.95070000  0.00000000  1.0
  O  O232  1  0.03180000  0.13370000  0.08620000  1.0
  O  O233  1  0.36630000  0.53180000  0.58620000  1.0
  O  O234  1  0.96820000  0.86630000  0.08620000  1.0
  O  O235  1  0.63370000  0.46820000  0.58620000  1.0
  O  O236  1  0.46820000  0.63370000  0.58620000  1.0
  O  O237  1  0.13370000  0.03180000  0.08620000  1.0
  O  O238  1  0.53180000  0.36630000  0.58620000  1.0
  O  O239  1  0.86630000  0.96820000  0.08620000  1.0
  O  O240  1  0.96820000  0.86630000  0.91380000  1.0
  O  O241  1  0.63370000  0.46820000  0.41380000  1.0
  O  O242  1  0.03180000  0.13370000  0.91380000  1.0
  O  O243  1  0.36630000  0.53180000  0.41380000  1.0
  O  O244  1  0.53180000  0.36630000  0.41380000  1.0
  O  O245  1  0.86630000  0.96820000  0.91380000  1.0
  O  O246  1  0.46820000  0.63370000  0.41380000  1.0
  O  O247  1  0.13370000  0.03180000  0.91380000  1.0
  O  O248  1  0.17280000  0.17280000  0.18590000  1.0
  O  O249  1  0.32720000  0.67280000  0.68590000  1.0
  O  O250  1  0.82720000  0.82720000  0.18590000  1.0
  O  O251  1  0.67280000  0.32720000  0.68590000  1.0
  O  O252  1  0.82720000  0.82720000  0.81410000  1.0
  O  O253  1  0.67280000  0.32720000  0.31410000  1.0
  O  O254  1  0.17280000  0.17280000  0.81410000  1.0
  O  O255  1  0.32720000  0.67280000  0.31410000  1.0
  O  O256  1  0.07890000  0.25530000  0.25040000  1.0
  O  O257  1  0.24470000  0.57890000  0.75040000  1.0
  O  O258  1  0.92110000  0.74470000  0.25040000  1.0
  O  O259  1  0.75530000  0.42110000  0.75040000  1.0
  O  O260  1  0.42110000  0.75530000  0.75040000  1.0
  O  O261  1  0.25530000  0.07890000  0.25040000  1.0
  O  O262  1  0.57890000  0.24470000  0.75040000  1.0
  O  O263  1  0.74470000  0.92110000  0.25040000  1.0
  O  O264  1  0.92110000  0.74470000  0.74960000  1.0
  O  O265  1  0.75530000  0.42110000  0.24960000  1.0
  O  O266  1  0.07890000  0.25530000  0.74960000  1.0
  O  O267  1  0.24470000  0.57890000  0.24960000  1.0
  O  O268  1  0.57890000  0.24470000  0.24960000  1.0
  O  O269  1  0.74470000  0.92110000  0.74960000  1.0
  O  O270  1  0.42110000  0.75530000  0.24960000  1.0
  O  O271  1  0.25530000  0.07890000  0.74960000  1.0
  O  O272  1  0.03330000  0.13500000  0.30850000  1.0
  O  O273  1  0.36500000  0.53330000  0.80850000  1.0
  O  O274  1  0.96670000  0.86500000  0.30850000  1.0
  O  O275  1  0.63500000  0.46670000  0.80850000  1.0
  O  O276  1  0.46670000  0.63500000  0.80850000  1.0
  O  O277  1  0.13500000  0.03330000  0.30850000  1.0
  O  O278  1  0.53330000  0.36500000  0.80850000  1.0
  O  O279  1  0.86500000  0.96670000  0.30850000  1.0
  O  O280  1  0.96670000  0.86500000  0.69150000  1.0
  O  O281  1  0.63500000  0.46670000  0.19150000  1.0
  O  O282  1  0.03330000  0.13500000  0.69150000  1.0
  O  O283  1  0.36500000  0.53330000  0.19150000  1.0
  O  O284  1  0.53330000  0.36500000  0.19150000  1.0
  O  O285  1  0.86500000  0.96670000  0.69150000  1.0
  O  O286  1  0.46670000  0.63500000  0.19150000  1.0
  O  O287  1  0.13500000  0.03330000  0.69150000  1.0
  O  O288  1  0.06090000  0.25390000  0.37710000  1.0
  O  O289  1  0.24610000  0.56090000  0.87710000  1.0
  O  O290  1  0.93910000  0.74610000  0.37710000  1.0
  O  O291  1  0.75390000  0.43910000  0.87710000  1.0
  O  O292  1  0.43910000  0.75390000  0.87710000  1.0
  O  O293  1  0.25390000  0.06090000  0.37710000  1.0
  O  O294  1  0.56090000  0.24610000  0.87710000  1.0
  O  O295  1  0.74610000  0.93910000  0.37710000  1.0
  O  O296  1  0.93910000  0.74610000  0.62290000  1.0
  O  O297  1  0.75390000  0.43910000  0.12290000  1.0
  O  O298  1  0.06090000  0.25390000  0.62290000  1.0
  O  O299  1  0.24610000  0.56090000  0.12290000  1.0
  O  O300  1  0.56090000  0.24610000  0.12290000  1.0
  O  O301  1  0.74610000  0.93910000  0.62290000  1.0
  O  O302  1  0.43910000  0.75390000  0.12290000  1.0
  O  O303  1  0.25390000  0.06090000  0.62290000  1.0
  O  O304  1  0.00000000  0.00000000  0.12100000  1.0
  O  O305  1  0.50000000  0.50000000  0.62100000  1.0
  O  O306  1  0.00000000  0.00000000  0.87900000  1.0
  O  O307  1  0.50000000  0.50000000  0.37900000  1.0
  O  O308  1  0.08130000  0.08130000  0.19780000  1.0
  O  O309  1  0.41870000  0.58130000  0.69780000  1.0
  O  O310  1  0.91870000  0.91870000  0.19780000  1.0
  O  O311  1  0.58130000  0.41870000  0.69780000  1.0
  O  O312  1  0.91870000  0.91870000  0.80220000  1.0
  O  O313  1  0.58130000  0.41870000  0.30220000  1.0
  O  O314  1  0.08130000  0.08130000  0.80220000  1.0
  O  O315  1  0.41870000  0.58130000  0.30220000  1.0
  O  O316  1  0.00000000  0.00000000  0.27540000  1.0
  O  O317  1  0.50000000  0.50000000  0.77540000  1.0
  O  O318  1  0.00000000  0.00000000  0.72460000  1.0
  O  O319  1  0.50000000  0.50000000  0.22460000  1.0
  O  O320  1  0.17650000  0.17650000  0.40870000  1.0
  O  O321  1  0.32350000  0.67650000  0.90870000  1.0
  O  O322  1  0.82350000  0.82350000  0.40870000  1.0
  O  O323  1  0.67650000  0.32350000  0.90870000  1.0
  O  O324  1  0.82350000  0.82350000  0.59130000  1.0
  O  O325  1  0.67650000  0.32350000  0.09130000  1.0
  O  O326  1  0.17650000  0.17650000  0.59130000  1.0
  O  O327  1  0.32350000  0.67650000  0.09130000  1.0
  O  O328  1  0.10060000  0.24280000  0.50000000  1.0
  O  O329  1  0.25720000  0.60060000  0.00000000  1.0
  O  O330  1  0.89940000  0.75720000  0.50000000  1.0
  O  O331  1  0.74280000  0.39940000  0.00000000  1.0
  O  O332  1  0.39940000  0.74280000  0.00000000  1.0
  O  O333  1  0.24280000  0.10060000  0.50000000  1.0
  O  O334  1  0.60060000  0.25720000  0.00000000  1.0
  O  O335  1  0.75720000  0.89940000  0.50000000  1.0
