# generated using pymatgen
data_SiO2
_symmetry_space_group_name_H-M   P-6m2
_cell_length_a   13.06300007
_cell_length_b   13.06300007
_cell_length_c   7.56500000
_cell_angle_alpha   90.00000000
_cell_angle_beta   90.00000000
_cell_angle_gamma   120.00000000
_symmetry_Int_Tables_number   187
_chemical_formula_structural   SiO2
_chemical_formula_sum   'Si18 O36'
_cell_volume   1117.95783014
_cell_formula_units_Z   18
loop_
 _symmetry_equiv_pos_site_id
 _symmetry_equiv_pos_as_xyz
  1  'x, y, z'
  2  '-x+y, -x, -z'
  3  '-y, x-y, z'
  4  'x, y, -z'
  5  '-x+y, -x, z'
  6  '-y, x-y, -z'
  7  '-y, -x, -z'
  8  'x, x-y, z'
  9  '-x+y, y, -z'
  10  '-y, -x, z'
  11  'x, x-y, -z'
  12  '-x+y, y, z'
loop_
 _atom_site_type_symbol
 _atom_site_label
 _atom_site_symmetry_multiplicity
 _atom_site_fract_x
 _atom_site_fract_y
 _atom_site_fract_z
 _atom_site_occupancy
  Si  Si0  12  0.23420000  0.00020000  0.20320000  1
  Si  Si1  6  0.09640000  0.42640000  0.50000000  1
  O  O2  12  0.03650000  0.34770000  0.32630000  1
  O  O3  6  0.09605000  0.19210000  0.22440000  1
  O  O4  6  0.25640000  0.12820000  0.26180000  1
  O  O5  6  0.27290000  0.00500000  0.00000000  1
  O  O6  3  0.07560000  0.53780000  0.50000000  1
  O  O7  3  0.23590000  0.47180000  0.50000000  1
