# generated using pymatgen
data_SiO2
_symmetry_space_group_name_H-M   'P 1'
_cell_length_a   13.06300007
_cell_length_b   13.06300007
_cell_length_c   7.56500000
_cell_angle_alpha   90.00000000
_cell_angle_beta   90.00000000
_cell_angle_gamma   120.00000000
_symmetry_Int_Tables_number   1
_chemical_formula_structural   SiO2
_chemical_formula_sum   'Si18 O36'
_cell_volume   1117.95783098
_cell_formula_units_Z   18
loop_
 _symmetry_equiv_pos_site_id
 _symmetry_equiv_pos_as_xyz
  1  'x, y, z'
loop_
 _atom_site_type_symbol
 _atom_site_label
 _atom_site_symmetry_multiplicity
 _atom_site_fract_x
 _atom_site_fract_y
 _atom_site_fract_z
 _atom_site_occupancy
  Si  Si0  1  0.23420000  0.00020000  0.20320000  1.0
  Si  Si1  1  0.76600000  0.76580000  0.79680000  1.0
  Si  Si2  1  0.99980000  0.23400000  0.20320000  1.0
  Si  Si3  1  0.23420000  0.00020000  0.79680000  1.0
  Si  Si4  1  0.76600000  0.76580000  0.20320000  1.0
  Si  Si5  1  0.99980000  0.23400000  0.79680000  1.0
  Si  Si6  1  0.99980000  0.76580000  0.79680000  1.0
  Si  Si7  1  0.23420000  0.23400000  0.20320000  1.0
  Si  Si8  1  0.76600000  0.00020000  0.79680000  1.0
  Si  Si9  1  0.99980000  0.76580000  0.20320000  1.0
  Si  Si10  1  0.23420000  0.23400000  0.79680000  1.0
  Si  Si11  1  0.76600000  0.00020000  0.20320000  1.0
  Si  Si12  1  0.09640000  0.42640000  0.50000000  1.0
  Si  Si13  1  0.33000000  0.90360000  0.50000000  1.0
  Si  Si14  1  0.57360000  0.67000000  0.50000000  1.0
  Si  Si15  1  0.57360000  0.90360000  0.50000000  1.0
  Si  Si16  1  0.09640000  0.67000000  0.50000000  1.0
  Si  Si17  1  0.33000000  0.42640000  0.50000000  1.0
  O  O18  1  0.03650000  0.34770000  0.32630000  1.0
  O  O19  1  0.31120000  0.96350000  0.67370000  1.0
  O  O20  1  0.65230000  0.68880000  0.32630000  1.0
  O  O21  1  0.03650000  0.34770000  0.67370000  1.0
  O  O22  1  0.31120000  0.96350000  0.32630000  1.0
  O  O23  1  0.65230000  0.68880000  0.67370000  1.0
  O  O24  1  0.65230000  0.96350000  0.67370000  1.0
  O  O25  1  0.03650000  0.68880000  0.32630000  1.0
  O  O26  1  0.31120000  0.34770000  0.67370000  1.0
  O  O27  1  0.65230000  0.96350000  0.32630000  1.0
  O  O28  1  0.03650000  0.68880000  0.67370000  1.0
  O  O29  1  0.31120000  0.34770000  0.32630000  1.0
  O  O30  1  0.09605000  0.19210000  0.22440000  1.0
  O  O31  1  0.09605000  0.90395000  0.77560000  1.0
  O  O32  1  0.80790000  0.90395000  0.22440000  1.0
  O  O33  1  0.09605000  0.19210000  0.77560000  1.0
  O  O34  1  0.09605000  0.90395000  0.22440000  1.0
  O  O35  1  0.80790000  0.90395000  0.77560000  1.0
  O  O36  1  0.25640000  0.12820000  0.26180000  1.0
  O  O37  1  0.87180000  0.74360000  0.73820000  1.0
  O  O38  1  0.87180000  0.12820000  0.26180000  1.0
  O  O39  1  0.25640000  0.12820000  0.73820000  1.0
  O  O40  1  0.87180000  0.74360000  0.26180000  1.0
  O  O41  1  0.87180000  0.12820000  0.73820000  1.0
  O  O42  1  0.27290000  0.00500000  0.00000000  1.0
  O  O43  1  0.73210000  0.72710000  0.00000000  1.0
  O  O44  1  0.99500000  0.26790000  0.00000000  1.0
  O  O45  1  0.99500000  0.72710000  0.00000000  1.0
  O  O46  1  0.27290000  0.26790000  0.00000000  1.0
  O  O47  1  0.73210000  0.00500000  0.00000000  1.0
  O  O48  1  0.07560000  0.53780000  0.50000000  1.0
  O  O49  1  0.46220000  0.92440000  0.50000000  1.0
  O  O50  1  0.46220000  0.53780000  0.50000000  1.0
  O  O51  1  0.23590000  0.47180000  0.50000000  1.0
  O  O52  1  0.23590000  0.76410000  0.50000000  1.0
  O  O53  1  0.52820000  0.76410000  0.50000000  1.0
