# generated using pymatgen
data_SiO2
_symmetry_space_group_name_H-M   P6_222
_cell_length_a   10.10100017
_cell_length_b   10.10100017
_cell_length_c   7.64700000
_cell_angle_alpha   90.00000000
_cell_angle_beta   90.00000000
_cell_angle_gamma   120.00000000
_symmetry_Int_Tables_number   180
_chemical_formula_structural   SiO2
_chemical_formula_sum   'Si9 O18'
_cell_volume   675.69464777
_cell_formula_units_Z   9
loop_
 _symmetry_equiv_pos_site_id
 _symmetry_equiv_pos_as_xyz
  1  'x, y, z'
  2  'x-y, x, z+1/3'
  3  '-y, x-y, z+2/3'
  4  '-x, -y, z'
  5  '-x+y, -x, z+1/3'
  6  'y, -x+y, z+2/3'
  7  '-y, -x, -z+2/3'
  8  '-x, -x+y, -z+1/3'
  9  '-x+y, y, -z'
  10  'y, x, -z+2/3'
  11  'x, x-y, -z+1/3'
  12  'x-y, -y, -z'
loop_
 _atom_site_type_symbol
 _atom_site_label
 _atom_site_symmetry_multiplicity
 _atom_site_fract_x
 _atom_site_fract_y
 _atom_site_fract_z
 _atom_site_occupancy
  Si  Si0  6  0.28650000  0.57300000  0.00000000  1
  Si  Si1  3  0.00000000  0.50000000  0.16666667  1
  O  O2  12  0.10740000  0.46430000  0.04283333  1
  O  O3  6  0.31715000  0.63430000  0.50000000  1
