# generated using pymatgen
data_SiO2
_symmetry_space_group_name_H-M   'P 1'
_cell_length_a   10.10100017
_cell_length_b   10.10100017
_cell_length_c   7.64700000
_cell_angle_alpha   90.00000000
_cell_angle_beta   90.00000000
_cell_angle_gamma   120.00000000
_symmetry_Int_Tables_number   1
_chemical_formula_structural   SiO2
_chemical_formula_sum   'Si9 O18'
_cell_volume   675.69464755
_cell_formula_units_Z   9
loop_
 _symmetry_equiv_pos_site_id
 _symmetry_equiv_pos_as_xyz
  1  'x, y, z'
loop_
 _atom_site_type_symbol
 _atom_site_label
 _atom_site_symmetry_multiplicity
 _atom_site_fract_x
 _atom_site_fract_y
 _atom_site_fract_z
 _atom_site_occupancy
  Si  Si0  1  0.28650000  0.57300000  0.00000000  1.0
  Si  Si1  1  0.71350000  0.28650000  0.33333333  1.0
  Si  Si2  1  0.42700000  0.71350000  0.66666667  1.0
  Si  Si3  1  0.71350000  0.42700000  0.00000000  1.0
  Si  Si4  1  0.28650000  0.71350000  0.33333333  1.0
  Si  Si5  1  0.57300000  0.28650000  0.66666667  1.0
  Si  Si6  1  0.00000000  0.50000000  0.16666667  1.0
  Si  Si7  1  0.50000000  0.00000000  0.50000000  1.0
  Si  Si8  1  0.50000000  0.50000000  0.83333333  1.0
  O  O9  1  0.10740000  0.46430000  0.04283333  1.0
  O  O10  1  0.64310000  0.10740000  0.37616666  1.0
  O  O11  1  0.53570000  0.64310000  0.70950000  1.0
  O  O12  1  0.89260000  0.53570000  0.04283333  1.0
  O  O13  1  0.35690000  0.89260000  0.37616666  1.0
  O  O14  1  0.46430000  0.35690000  0.70950000  1.0
  O  O15  1  0.53570000  0.89260000  0.62383334  1.0
  O  O16  1  0.89260000  0.35690000  0.29050000  1.0
  O  O17  1  0.35690000  0.46430000  0.95716667  1.0
  O  O18  1  0.46430000  0.10740000  0.62383334  1.0
  O  O19  1  0.10740000  0.64310000  0.29050000  1.0
  O  O20  1  0.64310000  0.53570000  0.95716667  1.0
  O  O21  1  0.31715000  0.63430000  0.50000000  1.0
  O  O22  1  0.68285000  0.31715000  0.83333333  1.0
  O  O23  1  0.36570000  0.68285000  0.16666667  1.0
  O  O24  1  0.68285000  0.36570000  0.50000000  1.0
  O  O25  1  0.31715000  0.68285000  0.83333333  1.0
  O  O26  1  0.63430000  0.31715000  0.16666667  1.0
