# generated using pymatgen
data_SiO2
_symmetry_space_group_name_H-M   'P 1'
_cell_length_a   18.76610000
_cell_length_b   18.76610000
_cell_length_c   11.69390000
_cell_angle_alpha   90.00000000
_cell_angle_beta   90.00000000
_cell_angle_gamma   90.00000000
_symmetry_Int_Tables_number   1
_chemical_formula_structural   SiO2
_chemical_formula_sum   'Si64 O128'
_cell_volume   4118.19994205
_cell_formula_units_Z   64
loop_
 _symmetry_equiv_pos_site_id
 _symmetry_equiv_pos_as_xyz
  1  'x, y, z'
loop_
 _atom_site_type_symbol
 _atom_site_label
 _atom_site_symmetry_multiplicity
 _atom_site_fract_x
 _atom_site_fract_y
 _atom_site_fract_z
 _atom_site_occupancy
  Si  Si0  1  0.01200000  0.19875000  0.26596000  1.0
  Si  Si1  1  0.98800000  0.80125000  0.73404000  1.0
  Si  Si2  1  0.30125000  0.51200000  0.76596000  1.0
  Si  Si3  1  0.69875000  0.48800000  0.23404000  1.0
  Si  Si4  1  0.98800000  0.80125000  0.26596000  1.0
  Si  Si5  1  0.01200000  0.19875000  0.73404000  1.0
  Si  Si6  1  0.69875000  0.48800000  0.76596000  1.0
  Si  Si7  1  0.30125000  0.51200000  0.23404000  1.0
  Si  Si8  1  0.51200000  0.30125000  0.23404000  1.0
  Si  Si9  1  0.48800000  0.69875000  0.76596000  1.0
  Si  Si10  1  0.80125000  0.98800000  0.73404000  1.0
  Si  Si11  1  0.19875000  0.01200000  0.26596000  1.0
  Si  Si12  1  0.48800000  0.69875000  0.23404000  1.0
  Si  Si13  1  0.51200000  0.30125000  0.76596000  1.0
  Si  Si14  1  0.19875000  0.01200000  0.73404000  1.0
  Si  Si15  1  0.80125000  0.98800000  0.26596000  1.0
  Si  Si16  1  0.12521000  0.75837000  0.13127000  1.0
  Si  Si17  1  0.87479000  0.24163000  0.86873000  1.0
  Si  Si18  1  0.74163000  0.62521000  0.63127000  1.0
  Si  Si19  1  0.25837000  0.37479000  0.36873000  1.0
  Si  Si20  1  0.87479000  0.24163000  0.13127000  1.0
  Si  Si21  1  0.12521000  0.75837000  0.86873000  1.0
  Si  Si22  1  0.25837000  0.37479000  0.63127000  1.0
  Si  Si23  1  0.74163000  0.62521000  0.36873000  1.0
  Si  Si24  1  0.62521000  0.74163000  0.36873000  1.0
  Si  Si25  1  0.37479000  0.25837000  0.63127000  1.0
  Si  Si26  1  0.24163000  0.87479000  0.86873000  1.0
  Si  Si27  1  0.75837000  0.12521000  0.13127000  1.0
  Si  Si28  1  0.37479000  0.25837000  0.36873000  1.0
  Si  Si29  1  0.62521000  0.74163000  0.63127000  1.0
  Si  Si30  1  0.75837000  0.12521000  0.86873000  1.0
  Si  Si31  1  0.24163000  0.87479000  0.13127000  1.0
  Si  Si32  1  0.14372000  0.26078000  0.36917000  1.0
  Si  Si33  1  0.85628000  0.73922000  0.63083000  1.0
  Si  Si34  1  0.23922000  0.64372000  0.86917000  1.0
  Si  Si35  1  0.76078000  0.35628000  0.13083000  1.0
  Si  Si36  1  0.85628000  0.73922000  0.36917000  1.0
  Si  Si37  1  0.14372000  0.26078000  0.63083000  1.0
  Si  Si38  1  0.76078000  0.35628000  0.86917000  1.0
  Si  Si39  1  0.23922000  0.64372000  0.13083000  1.0
  Si  Si40  1  0.64372000  0.23922000  0.13083000  1.0
  Si  Si41  1  0.35628000  0.76078000  0.86917000  1.0
  Si  Si42  1  0.73922000  0.85628000  0.63083000  1.0
  Si  Si43  1  0.26078000  0.14372000  0.36917000  1.0
  Si  Si44  1  0.35628000  0.76078000  0.13083000  1.0
  Si  Si45  1  0.64372000  0.23922000  0.86917000  1.0
  Si  Si46  1  0.26078000  0.14372000  0.63083000  1.0
  Si  Si47  1  0.73922000  0.85628000  0.36917000  1.0
  Si  Si48  1  0.00393000  0.11698000  0.50000000  1.0
  Si  Si49  1  0.99607000  0.88302000  0.50000000  1.0
  Si  Si50  1  0.38302000  0.50393000  0.00000000  1.0
  Si  Si51  1  0.61698000  0.49607000  0.00000000  1.0
  Si  Si52  1  0.50393000  0.38302000  0.00000000  1.0
  Si  Si53  1  0.49607000  0.61698000  0.00000000  1.0
  Si  Si54  1  0.88302000  0.99607000  0.50000000  1.0
  Si  Si55  1  0.11698000  0.00393000  0.50000000  1.0
  Si  Si56  1  0.05736000  0.05736000  0.13741000  1.0
  Si  Si57  1  0.94264000  0.94264000  0.86259000  1.0
  Si  Si58  1  0.44264000  0.55736000  0.63741000  1.0
  Si  Si59  1  0.55736000  0.44264000  0.36259000  1.0
  Si  Si60  1  0.94264000  0.94264000  0.13741000  1.0
  Si  Si61  1  0.05736000  0.05736000  0.86259000  1.0
  Si  Si62  1  0.55736000  0.44264000  0.63741000  1.0
  Si  Si63  1  0.44264000  0.55736000  0.36259000  1.0
  O  O64  1  0.00902000  0.83516000  0.38777000  1.0
  O  O65  1  0.99098000  0.16484000  0.61223000  1.0
  O  O66  1  0.66484000  0.50902000  0.88777000  1.0
  O  O67  1  0.33516000  0.49098000  0.11223000  1.0
  O  O68  1  0.99098000  0.16484000  0.38777000  1.0
  O  O69  1  0.00902000  0.83516000  0.61223000  1.0
  O  O70  1  0.33516000  0.49098000  0.88777000  1.0
  O  O71  1  0.66484000  0.50902000  0.11223000  1.0
  O  O72  1  0.50902000  0.66484000  0.11223000  1.0
  O  O73  1  0.49098000  0.33516000  0.88777000  1.0
  O  O74  1  0.16484000  0.99098000  0.61223000  1.0
  O  O75  1  0.83516000  0.00902000  0.38777000  1.0
  O  O76  1  0.49098000  0.33516000  0.11223000  1.0
  O  O77  1  0.50902000  0.66484000  0.88777000  1.0
  O  O78  1  0.83516000  0.00902000  0.61223000  1.0
  O  O79  1  0.16484000  0.99098000  0.38777000  1.0
  O  O80  1  0.03719000  0.13611000  0.18121000  1.0
  O  O81  1  0.96281000  0.86389000  0.81879000  1.0
  O  O82  1  0.36389000  0.53719000  0.68121000  1.0
  O  O83  1  0.63611000  0.46281000  0.31879000  1.0
  O  O84  1  0.96281000  0.86389000  0.18121000  1.0
  O  O85  1  0.03719000  0.13611000  0.81879000  1.0
  O  O86  1  0.63611000  0.46281000  0.68121000  1.0
  O  O87  1  0.36389000  0.53719000  0.31879000  1.0
  O  O88  1  0.53719000  0.36389000  0.31879000  1.0
  O  O89  1  0.46281000  0.63611000  0.68121000  1.0
  O  O90  1  0.86389000  0.96281000  0.81879000  1.0
  O  O91  1  0.13611000  0.03719000  0.18121000  1.0
  O  O92  1  0.46281000  0.63611000  0.31879000  1.0
  O  O93  1  0.53719000  0.36389000  0.68121000  1.0
  O  O94  1  0.13611000  0.03719000  0.81879000  1.0
  O  O95  1  0.86389000  0.96281000  0.18121000  1.0
  O  O96  1  0.05582000  0.76091000  0.21207000  1.0
  O  O97  1  0.94418000  0.23909000  0.78793000  1.0
  O  O98  1  0.73909000  0.55582000  0.71207000  1.0
  O  O99  1  0.26091000  0.44418000  0.28793000  1.0
  O  O100  1  0.94418000  0.23909000  0.21207000  1.0
  O  O101  1  0.05582000  0.76091000  0.78793000  1.0
  O  O102  1  0.26091000  0.44418000  0.71207000  1.0
  O  O103  1  0.73909000  0.55582000  0.28793000  1.0
  O  O104  1  0.55582000  0.73909000  0.28793000  1.0
  O  O105  1  0.44418000  0.26091000  0.71207000  1.0
  O  O106  1  0.23909000  0.94418000  0.78793000  1.0
  O  O107  1  0.76091000  0.05582000  0.21207000  1.0
  O  O108  1  0.44418000  0.26091000  0.28793000  1.0
  O  O109  1  0.55582000  0.73909000  0.71207000  1.0
  O  O110  1  0.76091000  0.05582000  0.78793000  1.0
  O  O111  1  0.23909000  0.94418000  0.21207000  1.0
  O  O112  1  0.07561000  0.25506000  0.28585000  1.0
  O  O113  1  0.92439000  0.74494000  0.71415000  1.0
  O  O114  1  0.24494000  0.57561000  0.78585000  1.0
  O  O115  1  0.75506000  0.42439000  0.21415000  1.0
  O  O116  1  0.92439000  0.74494000  0.28585000  1.0
  O  O117  1  0.07561000  0.25506000  0.71415000  1.0
  O  O118  1  0.75506000  0.42439000  0.78585000  1.0
  O  O119  1  0.24494000  0.57561000  0.21415000  1.0
  O  O120  1  0.57561000  0.24494000  0.21415000  1.0
  O  O121  1  0.42439000  0.75506000  0.78585000  1.0
  O  O122  1  0.74494000  0.92439000  0.71415000  1.0
  O  O123  1  0.25506000  0.07561000  0.28585000  1.0
  O  O124  1  0.42439000  0.75506000  0.21415000  1.0
  O  O125  1  0.57561000  0.24494000  0.78585000  1.0
  O  O126  1  0.25506000  0.07561000  0.71415000  1.0
  O  O127  1  0.74494000  0.92439000  0.28585000  1.0
  O  O128  1  0.16269000  0.68158000  0.14435000  1.0
  O  O129  1  0.83731000  0.31842000  0.85565000  1.0
  O  O130  1  0.81842000  0.66269000  0.64435000  1.0
  O  O131  1  0.18158000  0.33731000  0.35565000  1.0
  O  O132  1  0.83731000  0.31842000  0.14435000  1.0
  O  O133  1  0.16269000  0.68158000  0.85565000  1.0
  O  O134  1  0.18158000  0.33731000  0.64435000  1.0
  O  O135  1  0.81842000  0.66269000  0.35565000  1.0
  O  O136  1  0.66269000  0.81842000  0.35565000  1.0
  O  O137  1  0.33731000  0.18158000  0.64435000  1.0
  O  O138  1  0.31842000  0.83731000  0.85565000  1.0
  O  O139  1  0.68158000  0.16269000  0.14435000  1.0
  O  O140  1  0.33731000  0.18158000  0.35565000  1.0
  O  O141  1  0.66269000  0.81842000  0.64435000  1.0
  O  O142  1  0.68158000  0.16269000  0.85565000  1.0
  O  O143  1  0.31842000  0.83731000  0.14435000  1.0
  O  O144  1  0.10224000  0.77032000  0.00000000  1.0
  O  O145  1  0.89776000  0.22968000  0.00000000  1.0
  O  O146  1  0.72968000  0.60224000  0.50000000  1.0
  O  O147  1  0.27032000  0.39776000  0.50000000  1.0
  O  O148  1  0.60224000  0.72968000  0.50000000  1.0
  O  O149  1  0.39776000  0.27032000  0.50000000  1.0
  O  O150  1  0.22968000  0.89776000  0.00000000  1.0
  O  O151  1  0.77032000  0.10224000  0.00000000  1.0
  O  O152  1  0.11938000  0.24971000  0.50000000  1.0
  O  O153  1  0.88062000  0.75029000  0.50000000  1.0
  O  O154  1  0.25029000  0.61938000  0.00000000  1.0
  O  O155  1  0.74971000  0.38062000  0.00000000  1.0
  O  O156  1  0.61938000  0.25029000  0.00000000  1.0
  O  O157  1  0.38062000  0.74971000  0.00000000  1.0
  O  O158  1  0.75029000  0.88062000  0.50000000  1.0
  O  O159  1  0.24971000  0.11938000  0.50000000  1.0
  O  O160  1  0.18020000  0.81980000  0.16927000  1.0
  O  O161  1  0.81980000  0.18020000  0.83073000  1.0
  O  O162  1  0.68020000  0.68020000  0.66927000  1.0
  O  O163  1  0.31980000  0.31980000  0.33073000  1.0
  O  O164  1  0.81980000  0.18020000  0.16927000  1.0
  O  O165  1  0.18020000  0.81980000  0.83073000  1.0
  O  O166  1  0.31980000  0.31980000  0.66927000  1.0
  O  O167  1  0.68020000  0.68020000  0.33073000  1.0
  O  O168  1  0.19953000  0.19953000  0.33379000  1.0
  O  O169  1  0.80047000  0.80047000  0.66621000  1.0
  O  O170  1  0.30047000  0.69953000  0.83379000  1.0
  O  O171  1  0.69953000  0.30047000  0.16621000  1.0
  O  O172  1  0.80047000  0.80047000  0.33379000  1.0
  O  O173  1  0.19953000  0.19953000  0.66621000  1.0
  O  O174  1  0.69953000  0.30047000  0.83379000  1.0
  O  O175  1  0.30047000  0.69953000  0.16621000  1.0
  O  O176  1  0.00000000  0.00000000  0.18251000  1.0
  O  O177  1  0.00000000  0.00000000  0.81749000  1.0
  O  O178  1  0.50000000  0.50000000  0.68251000  1.0
  O  O179  1  0.50000000  0.50000000  0.31749000  1.0
  O  O180  1  0.05313000  0.94687000  0.50000000  1.0
  O  O181  1  0.94687000  0.05313000  0.50000000  1.0
  O  O182  1  0.55313000  0.55313000  0.00000000  1.0
  O  O183  1  0.44687000  0.44687000  0.00000000  1.0
  O  O184  1  0.05726000  0.05726000  0.00000000  1.0
  O  O185  1  0.94274000  0.94274000  0.00000000  1.0
  O  O186  1  0.44274000  0.55726000  0.50000000  1.0
  O  O187  1  0.55726000  0.44274000  0.50000000  1.0
  O  O188  1  0.08268000  0.08268000  0.50000000  1.0
  O  O189  1  0.91732000  0.91732000  0.50000000  1.0
  O  O190  1  0.41732000  0.58268000  0.00000000  1.0
  O  O191  1  0.58268000  0.41732000  0.00000000  1.0
