# generated using pymatgen
data_SiO2
_symmetry_space_group_name_H-M   Pbcn
_cell_length_a   14.68900000
_cell_length_b   8.64500000
_cell_length_c   18.94100000
_cell_angle_alpha   90.00000000
_cell_angle_beta   90.00000000
_cell_angle_gamma   90.00000000
_symmetry_Int_Tables_number   60
_chemical_formula_structural   SiO2
_chemical_formula_sum   'Si36 O72'
_cell_volume   2405.24949710
_cell_formula_units_Z   36
loop_
 _symmetry_equiv_pos_site_id
 _symmetry_equiv_pos_as_xyz
  1  'x, y, z'
  2  '-x, -y, -z'
  3  '-x+1/2, -y+1/2, z+1/2'
  4  'x+1/2, y+1/2, -z+1/2'
  5  'x+1/2, -y+1/2, -z'
  6  '-x+1/2, y+1/2, z'
  7  '-x, y, -z+1/2'
  8  'x, -y, z+1/2'
loop_
 _atom_site_type_symbol
 _atom_site_label
 _atom_site_symmetry_multiplicity
 _atom_site_fract_x
 _atom_site_fract_y
 _atom_site_fract_z
 _atom_site_occupancy
  Si  Si0  8  0.00710000  0.08080000  0.60150000  1
  Si  Si1  8  0.12890000  0.12080000  0.47460000  1
  Si  Si2  8  0.13120000  0.29460000  0.85130000  1
  Si  Si3  8  0.21920000  0.40940000  0.40970000  1
  Si  Si4  4  0.00000000  0.17200000  0.75000000  1
  O  O5  8  0.03060000  0.06560000  0.68430000  1
  O  O6  8  0.04430000  0.07320000  0.42500000  1
  O  O7  8  0.06010000  0.22670000  0.90830000  1
  O  O8  8  0.08410000  0.27870000  0.77470000  1
  O  O9  8  0.09840000  0.10690000  0.55610000  1
  O  O10  8  0.15370000  0.47300000  0.86770000  1
  O  O11  8  0.15820000  0.29640000  0.45790000  1
  O  O12  8  0.21310000  0.00630000  0.45980000  1
  O  O13  8  0.22280000  0.19250000  0.85450000  1
