# generated using pymatgen
data_SiO2
_symmetry_space_group_name_H-M   'P 1'
_cell_length_a   8.64500000
_cell_length_b   14.68900000
_cell_length_c   18.94100000
_cell_angle_alpha   90.00000000
_cell_angle_beta   90.00000000
_cell_angle_gamma   90.00000000
_symmetry_Int_Tables_number   1
_chemical_formula_structural   SiO2
_chemical_formula_sum   'Si36 O72'
_cell_volume   2405.24949710
_cell_formula_units_Z   36
loop_
 _symmetry_equiv_pos_site_id
 _symmetry_equiv_pos_as_xyz
  1  'x, y, z'
loop_
 _atom_site_type_symbol
 _atom_site_label
 _atom_site_symmetry_multiplicity
 _atom_site_fract_x
 _atom_site_fract_y
 _atom_site_fract_z
 _atom_site_occupancy
  Si  Si0  1  0.41920000  0.50710000  0.60150000  1.0
  Si  Si1  1  0.58080000  0.49290000  0.39850000  1.0
  Si  Si2  1  0.08080000  0.99290000  0.10150000  1.0
  Si  Si3  1  0.91920000  0.00710000  0.89850000  1.0
  Si  Si4  1  0.08080000  0.00710000  0.39850000  1.0
  Si  Si5  1  0.91920000  0.99290000  0.60150000  1.0
  Si  Si6  1  0.41920000  0.49290000  0.89850000  1.0
  Si  Si7  1  0.58080000  0.50710000  0.10150000  1.0
  Si  Si8  1  0.37920000  0.62890000  0.47460000  1.0
  Si  Si9  1  0.62080000  0.37110000  0.52540000  1.0
  Si  Si10  1  0.12080000  0.87110000  0.97460000  1.0
  Si  Si11  1  0.87920000  0.12890000  0.02540000  1.0
  Si  Si12  1  0.12080000  0.12890000  0.52540000  1.0
  Si  Si13  1  0.87920000  0.87110000  0.47460000  1.0
  Si  Si14  1  0.37920000  0.37110000  0.02540000  1.0
  Si  Si15  1  0.62080000  0.62890000  0.97460000  1.0
  Si  Si16  1  0.20540000  0.63120000  0.85130000  1.0
  Si  Si17  1  0.79460000  0.36880000  0.14870000  1.0
  Si  Si18  1  0.29460000  0.86880000  0.35130000  1.0
  Si  Si19  1  0.70540000  0.13120000  0.64870000  1.0
  Si  Si20  1  0.29460000  0.13120000  0.14870000  1.0
  Si  Si21  1  0.70540000  0.86880000  0.85130000  1.0
  Si  Si22  1  0.20540000  0.36880000  0.64870000  1.0
  Si  Si23  1  0.79460000  0.63120000  0.35130000  1.0
  Si  Si24  1  0.09060000  0.71920000  0.40970000  1.0
  Si  Si25  1  0.90940000  0.28080000  0.59030000  1.0
  Si  Si26  1  0.40940000  0.78080000  0.90970000  1.0
  Si  Si27  1  0.59060000  0.21920000  0.09030000  1.0
  Si  Si28  1  0.40940000  0.21920000  0.59030000  1.0
  Si  Si29  1  0.59060000  0.78080000  0.40970000  1.0
  Si  Si30  1  0.09060000  0.28080000  0.09030000  1.0
  Si  Si31  1  0.90940000  0.71920000  0.90970000  1.0
  Si  Si32  1  0.32800000  0.50000000  0.75000000  1.0
  Si  Si33  1  0.67200000  0.50000000  0.25000000  1.0
  Si  Si34  1  0.17200000  0.00000000  0.25000000  1.0
  Si  Si35  1  0.82800000  0.00000000  0.75000000  1.0
  O  O36  1  0.43440000  0.53060000  0.68430000  1.0
  O  O37  1  0.56560000  0.46940000  0.31570000  1.0
  O  O38  1  0.06560000  0.96940000  0.18430000  1.0
  O  O39  1  0.93440000  0.03060000  0.81570000  1.0
  O  O40  1  0.06560000  0.03060000  0.31570000  1.0
  O  O41  1  0.93440000  0.96940000  0.68430000  1.0
  O  O42  1  0.43440000  0.46940000  0.81570000  1.0
  O  O43  1  0.56560000  0.53060000  0.18430000  1.0
  O  O44  1  0.42680000  0.54430000  0.42500000  1.0
  O  O45  1  0.57320000  0.45570000  0.57500000  1.0
  O  O46  1  0.07320000  0.95570000  0.92500000  1.0
  O  O47  1  0.92680000  0.04430000  0.07500000  1.0
  O  O48  1  0.07320000  0.04430000  0.57500000  1.0
  O  O49  1  0.92680000  0.95570000  0.42500000  1.0
  O  O50  1  0.42680000  0.45570000  0.07500000  1.0
  O  O51  1  0.57320000  0.54430000  0.92500000  1.0
  O  O52  1  0.27330000  0.56010000  0.90830000  1.0
  O  O53  1  0.72670000  0.43990000  0.09170000  1.0
  O  O54  1  0.22670000  0.93990000  0.40830000  1.0
  O  O55  1  0.77330000  0.06010000  0.59170000  1.0
  O  O56  1  0.22670000  0.06010000  0.09170000  1.0
  O  O57  1  0.77330000  0.93990000  0.90830000  1.0
  O  O58  1  0.27330000  0.43990000  0.59170000  1.0
  O  O59  1  0.72670000  0.56010000  0.40830000  1.0
  O  O60  1  0.22130000  0.58410000  0.77470000  1.0
  O  O61  1  0.77870000  0.41590000  0.22530000  1.0
  O  O62  1  0.27870000  0.91590000  0.27470000  1.0
  O  O63  1  0.72130000  0.08410000  0.72530000  1.0
  O  O64  1  0.27870000  0.08410000  0.22530000  1.0
  O  O65  1  0.72130000  0.91590000  0.77470000  1.0
  O  O66  1  0.22130000  0.41590000  0.72530000  1.0
  O  O67  1  0.77870000  0.58410000  0.27470000  1.0
  O  O68  1  0.39310000  0.59840000  0.55610000  1.0
  O  O69  1  0.60690000  0.40160000  0.44390000  1.0
  O  O70  1  0.10690000  0.90160000  0.05610000  1.0
  O  O71  1  0.89310000  0.09840000  0.94390000  1.0
  O  O72  1  0.10690000  0.09840000  0.44390000  1.0
  O  O73  1  0.89310000  0.90160000  0.55610000  1.0
  O  O74  1  0.39310000  0.40160000  0.94390000  1.0
  O  O75  1  0.60690000  0.59840000  0.05610000  1.0
  O  O76  1  0.02700000  0.65370000  0.86770000  1.0
  O  O77  1  0.97300000  0.34630000  0.13230000  1.0
  O  O78  1  0.47300000  0.84630000  0.36770000  1.0
  O  O79  1  0.52700000  0.15370000  0.63230000  1.0
  O  O80  1  0.47300000  0.15370000  0.13230000  1.0
  O  O81  1  0.52700000  0.84630000  0.86770000  1.0
  O  O82  1  0.02700000  0.34630000  0.63230000  1.0
  O  O83  1  0.97300000  0.65370000  0.36770000  1.0
  O  O84  1  0.20360000  0.65820000  0.45790000  1.0
  O  O85  1  0.79640000  0.34180000  0.54210000  1.0
  O  O86  1  0.29640000  0.84180000  0.95790000  1.0
  O  O87  1  0.70360000  0.15820000  0.04210000  1.0
  O  O88  1  0.29640000  0.15820000  0.54210000  1.0
  O  O89  1  0.70360000  0.84180000  0.45790000  1.0
  O  O90  1  0.20360000  0.34180000  0.04210000  1.0
  O  O91  1  0.79640000  0.65820000  0.95790000  1.0
  O  O92  1  0.49370000  0.71310000  0.45980000  1.0
  O  O93  1  0.50630000  0.28690000  0.54020000  1.0
  O  O94  1  0.00630000  0.78690000  0.95980000  1.0
  O  O95  1  0.99370000  0.21310000  0.04020000  1.0
  O  O96  1  0.00630000  0.21310000  0.54020000  1.0
  O  O97  1  0.99370000  0.78690000  0.45980000  1.0
  O  O98  1  0.49370000  0.28690000  0.04020000  1.0
  O  O99  1  0.50630000  0.71310000  0.95980000  1.0
  O  O100  1  0.30750000  0.72280000  0.85450000  1.0
  O  O101  1  0.69250000  0.27720000  0.14550000  1.0
  O  O102  1  0.19250000  0.77720000  0.35450000  1.0
  O  O103  1  0.80750000  0.22280000  0.64550000  1.0
  O  O104  1  0.19250000  0.22280000  0.14550000  1.0
  O  O105  1  0.80750000  0.77720000  0.85450000  1.0
  O  O106  1  0.30750000  0.27720000  0.64550000  1.0
  O  O107  1  0.69250000  0.72280000  0.35450000  1.0
