# generated using pymatgen
data_SiO2
_symmetry_space_group_name_H-M   'P 1'
_cell_length_a   13.43900000
_cell_length_b   13.43900000
_cell_length_c   21.86000001
_cell_angle_alpha   90.00000000
_cell_angle_beta   90.00000000
_cell_angle_gamma   90.00000000
_symmetry_Int_Tables_number   1
_chemical_formula_structural   SiO2
_chemical_formula_sum   'Si56 O112'
_cell_volume   3948.06292357
_cell_formula_units_Z   56
loop_
 _symmetry_equiv_pos_site_id
 _symmetry_equiv_pos_as_xyz
  1  'x, y, z'
loop_
 _atom_site_type_symbol
 _atom_site_label
 _atom_site_symmetry_multiplicity
 _atom_site_fract_x
 _atom_site_fract_y
 _atom_site_fract_z
 _atom_site_occupancy
  Si  Si0  1  0.11270000  0.11220000  0.88770000  1.0
  Si  Si1  1  0.38780000  0.61270000  0.61230000  1.0
  Si  Si2  1  0.88730000  0.88780000  0.88770000  1.0
  Si  Si3  1  0.61220000  0.38730000  0.61230000  1.0
  Si  Si4  1  0.11270000  0.88780000  0.88770000  1.0
  Si  Si5  1  0.38780000  0.38730000  0.61230000  1.0
  Si  Si6  1  0.88730000  0.11220000  0.88770000  1.0
  Si  Si7  1  0.61220000  0.61270000  0.61230000  1.0
  Si  Si8  1  0.38570000  0.11400000  0.56390000  1.0
  Si  Si9  1  0.38600000  0.88570000  0.93610000  1.0
  Si  Si10  1  0.61430000  0.88600000  0.56390000  1.0
  Si  Si11  1  0.61400000  0.11430000  0.93610000  1.0
  Si  Si12  1  0.38570000  0.88600000  0.56390000  1.0
  Si  Si13  1  0.38600000  0.11430000  0.93610000  1.0
  Si  Si14  1  0.61430000  0.11400000  0.56390000  1.0
  Si  Si15  1  0.61400000  0.88570000  0.93610000  1.0
  Si  Si16  1  0.29450000  0.11630000  0.81050000  1.0
  Si  Si17  1  0.38370000  0.79450000  0.68950000  1.0
  Si  Si18  1  0.70550000  0.88370000  0.81050000  1.0
  Si  Si19  1  0.61630000  0.20550000  0.68950000  1.0
  Si  Si20  1  0.29450000  0.88370000  0.81050000  1.0
  Si  Si21  1  0.38370000  0.20550000  0.68950000  1.0
  Si  Si22  1  0.70550000  0.11630000  0.81050000  1.0
  Si  Si23  1  0.61630000  0.79450000  0.68950000  1.0
  Si  Si24  1  0.20300000  0.20300000  0.00000000  1.0
  Si  Si25  1  0.79700000  0.20300000  0.00000000  1.0
  Si  Si26  1  0.79700000  0.79700000  0.00000000  1.0
  Si  Si27  1  0.20300000  0.79700000  0.00000000  1.0
  Si  Si28  1  0.61270000  0.61220000  0.38770000  1.0
  Si  Si29  1  0.88780000  0.11270000  0.11230000  1.0
  Si  Si30  1  0.38730000  0.38780000  0.38770000  1.0
  Si  Si31  1  0.11220000  0.88730000  0.11230000  1.0
  Si  Si32  1  0.61270000  0.38780000  0.38770000  1.0
  Si  Si33  1  0.88780000  0.88730000  0.11230000  1.0
  Si  Si34  1  0.38730000  0.61220000  0.38770000  1.0
  Si  Si35  1  0.11220000  0.11270000  0.11230000  1.0
  Si  Si36  1  0.88570000  0.61400000  0.06390000  1.0
  Si  Si37  1  0.88600000  0.38570000  0.43610000  1.0
  Si  Si38  1  0.11430000  0.38600000  0.06390000  1.0
  Si  Si39  1  0.11400000  0.61430000  0.43610000  1.0
  Si  Si40  1  0.88570000  0.38600000  0.06390000  1.0
  Si  Si41  1  0.88600000  0.61430000  0.43610000  1.0
  Si  Si42  1  0.11430000  0.61400000  0.06390000  1.0
  Si  Si43  1  0.11400000  0.38570000  0.43610000  1.0
  Si  Si44  1  0.79450000  0.61630000  0.31050000  1.0
  Si  Si45  1  0.88370000  0.29450000  0.18950000  1.0
  Si  Si46  1  0.20550000  0.38370000  0.31050000  1.0
  Si  Si47  1  0.11630000  0.70550000  0.18950000  1.0
  Si  Si48  1  0.79450000  0.38370000  0.31050000  1.0
  Si  Si49  1  0.88370000  0.70550000  0.18950000  1.0
  Si  Si50  1  0.20550000  0.61630000  0.31050000  1.0
  Si  Si51  1  0.11630000  0.29450000  0.18950000  1.0
  Si  Si52  1  0.70300000  0.70300000  0.50000000  1.0
  Si  Si53  1  0.29700000  0.70300000  0.50000000  1.0
  Si  Si54  1  0.29700000  0.29700000  0.50000000  1.0
  Si  Si55  1  0.70300000  0.29700000  0.50000000  1.0
  O  O56  1  0.68430000  0.62340000  0.55390000  1.0
  O  O57  1  0.87660000  0.18430000  0.94610000  1.0
  O  O58  1  0.31570000  0.37660000  0.55390000  1.0
  O  O59  1  0.12340000  0.81570000  0.94610000  1.0
  O  O60  1  0.68430000  0.37660000  0.55390000  1.0
  O  O61  1  0.87660000  0.81570000  0.94610000  1.0
  O  O62  1  0.31570000  0.62340000  0.55390000  1.0
  O  O63  1  0.12340000  0.18430000  0.94610000  1.0
  O  O64  1  0.36430000  0.12530000  0.63610000  1.0
  O  O65  1  0.37470000  0.86430000  0.86390000  1.0
  O  O66  1  0.63570000  0.87470000  0.63610000  1.0
  O  O67  1  0.62530000  0.13570000  0.86390000  1.0
  O  O68  1  0.36430000  0.87470000  0.63610000  1.0
  O  O69  1  0.37470000  0.13570000  0.86390000  1.0
  O  O70  1  0.63570000  0.12530000  0.63610000  1.0
  O  O71  1  0.62530000  0.86430000  0.86390000  1.0
  O  O72  1  0.18610000  0.14990000  0.83430000  1.0
  O  O73  1  0.35010000  0.68610000  0.66570000  1.0
  O  O74  1  0.81390000  0.85010000  0.83430000  1.0
  O  O75  1  0.64990000  0.31390000  0.66570000  1.0
  O  O76  1  0.18610000  0.85010000  0.83430000  1.0
  O  O77  1  0.35010000  0.31390000  0.66570000  1.0
  O  O78  1  0.81390000  0.14990000  0.83430000  1.0
  O  O79  1  0.64990000  0.68610000  0.66570000  1.0
  O  O80  1  0.31170000  0.18620000  0.52650000  1.0
  O  O81  1  0.31380000  0.81170000  0.97350000  1.0
  O  O82  1  0.68830000  0.81380000  0.52650000  1.0
  O  O83  1  0.68620000  0.18830000  0.97350000  1.0
  O  O84  1  0.31170000  0.81380000  0.52650000  1.0
  O  O85  1  0.31380000  0.18830000  0.97350000  1.0
  O  O86  1  0.68830000  0.18620000  0.52650000  1.0
  O  O87  1  0.68620000  0.81170000  0.97350000  1.0
  O  O88  1  0.61510000  0.50000000  0.63700000  1.0
  O  O89  1  0.00000000  0.11510000  0.86300000  1.0
  O  O90  1  0.38490000  0.50000000  0.63700000  1.0
  O  O91  1  0.00000000  0.88490000  0.86300000  1.0
  O  O92  1  0.14120000  0.00000000  0.90670000  1.0
  O  O93  1  0.50000000  0.64120000  0.59330000  1.0
  O  O94  1  0.85880000  0.00000000  0.90670000  1.0
  O  O95  1  0.50000000  0.35880000  0.59330000  1.0
  O  O96  1  0.29240000  0.00000000  0.79340000  1.0
  O  O97  1  0.50000000  0.79240000  0.70660000  1.0
  O  O98  1  0.70760000  0.00000000  0.79340000  1.0
  O  O99  1  0.50000000  0.20760000  0.70660000  1.0
  O  O100  1  0.35720000  0.00000000  0.94980000  1.0
  O  O101  1  0.50000000  0.85720000  0.55020000  1.0
  O  O102  1  0.64280000  0.00000000  0.94980000  1.0
  O  O103  1  0.50000000  0.14280000  0.55020000  1.0
  O  O104  1  0.36670000  0.00000000  0.54410000  1.0
  O  O105  1  0.50000000  0.86670000  0.95590000  1.0
  O  O106  1  0.63330000  0.00000000  0.54410000  1.0
  O  O107  1  0.50000000  0.13330000  0.95590000  1.0
  O  O108  1  0.32100000  0.17900000  0.75000000  1.0
  O  O109  1  0.32100000  0.82100000  0.75000000  1.0
  O  O110  1  0.67900000  0.82100000  0.75000000  1.0
  O  O111  1  0.67900000  0.17900000  0.75000000  1.0
  O  O112  1  0.18430000  0.12340000  0.05390000  1.0
  O  O113  1  0.37660000  0.68430000  0.44610000  1.0
  O  O114  1  0.81570000  0.87660000  0.05390000  1.0
  O  O115  1  0.62340000  0.31570000  0.44610000  1.0
  O  O116  1  0.18430000  0.87660000  0.05390000  1.0
  O  O117  1  0.37660000  0.31570000  0.44610000  1.0
  O  O118  1  0.81570000  0.12340000  0.05390000  1.0
  O  O119  1  0.62340000  0.68430000  0.44610000  1.0
  O  O120  1  0.86430000  0.62530000  0.13610000  1.0
  O  O121  1  0.87470000  0.36430000  0.36390000  1.0
  O  O122  1  0.13570000  0.37470000  0.13610000  1.0
  O  O123  1  0.12530000  0.63570000  0.36390000  1.0
  O  O124  1  0.86430000  0.37470000  0.13610000  1.0
  O  O125  1  0.87470000  0.63570000  0.36390000  1.0
  O  O126  1  0.13570000  0.62530000  0.13610000  1.0
  O  O127  1  0.12530000  0.36430000  0.36390000  1.0
  O  O128  1  0.68610000  0.64990000  0.33430000  1.0
  O  O129  1  0.85010000  0.18610000  0.16570000  1.0
  O  O130  1  0.31390000  0.35010000  0.33430000  1.0
  O  O131  1  0.14990000  0.81390000  0.16570000  1.0
  O  O132  1  0.68610000  0.35010000  0.33430000  1.0
  O  O133  1  0.85010000  0.81390000  0.16570000  1.0
  O  O134  1  0.31390000  0.64990000  0.33430000  1.0
  O  O135  1  0.14990000  0.18610000  0.16570000  1.0
  O  O136  1  0.81170000  0.68620000  0.02650000  1.0
  O  O137  1  0.81380000  0.31170000  0.47350000  1.0
  O  O138  1  0.18830000  0.31380000  0.02650000  1.0
  O  O139  1  0.18620000  0.68830000  0.47350000  1.0
  O  O140  1  0.81170000  0.31380000  0.02650000  1.0
  O  O141  1  0.81380000  0.68830000  0.47350000  1.0
  O  O142  1  0.18830000  0.68620000  0.02650000  1.0
  O  O143  1  0.18620000  0.31170000  0.47350000  1.0
  O  O144  1  0.11510000  0.00000000  0.13700000  1.0
  O  O145  1  0.50000000  0.61510000  0.36300000  1.0
  O  O146  1  0.88490000  0.00000000  0.13700000  1.0
  O  O147  1  0.50000000  0.38490000  0.36300000  1.0
  O  O148  1  0.64120000  0.50000000  0.40670000  1.0
  O  O149  1  0.00000000  0.14120000  0.09330000  1.0
  O  O150  1  0.35880000  0.50000000  0.40670000  1.0
  O  O151  1  0.00000000  0.85880000  0.09330000  1.0
  O  O152  1  0.79240000  0.50000000  0.29340000  1.0
  O  O153  1  0.00000000  0.29240000  0.20660000  1.0
  O  O154  1  0.20760000  0.50000000  0.29340000  1.0
  O  O155  1  0.00000000  0.70760000  0.20660000  1.0
  O  O156  1  0.85720000  0.50000000  0.44980000  1.0
  O  O157  1  0.00000000  0.35720000  0.05020000  1.0
  O  O158  1  0.14280000  0.50000000  0.44980000  1.0
  O  O159  1  0.00000000  0.64280000  0.05020000  1.0
  O  O160  1  0.86670000  0.50000000  0.04410000  1.0
  O  O161  1  0.00000000  0.36670000  0.45590000  1.0
  O  O162  1  0.13330000  0.50000000  0.04410000  1.0
  O  O163  1  0.00000000  0.63330000  0.45590000  1.0
  O  O164  1  0.82100000  0.67900000  0.25000000  1.0
  O  O165  1  0.82100000  0.32100000  0.25000000  1.0
  O  O166  1  0.17900000  0.32100000  0.25000000  1.0
  O  O167  1  0.17900000  0.67900000  0.25000000  1.0
