# generated using pymatgen
data_SiO2
_symmetry_space_group_name_H-M   P4/nmm
_cell_length_a   18.65300000
_cell_length_b   18.65300000
_cell_length_c   9.44100000
_cell_angle_alpha   90.00000000
_cell_angle_beta   90.00000000
_cell_angle_gamma   90.00000000
_symmetry_Int_Tables_number   129
_chemical_formula_structural   SiO2
_chemical_formula_sum   'Si48 O96'
_cell_volume   3284.84875537
_cell_formula_units_Z   48
loop_
 _symmetry_equiv_pos_site_id
 _symmetry_equiv_pos_as_xyz
  1  'x, y, z'
  2  '-y+1/2, x+1/2, z'
  3  '-x, -y, z'
  4  'y+1/2, -x+1/2, z'
  5  'x+1/2, -y+1/2, -z'
  6  '-y, -x, -z'
  7  '-x+1/2, y+1/2, -z'
  8  'y, x, -z'
  9  '-x+1/2, -y+1/2, -z'
  10  'y, -x, -z'
  11  'x+1/2, y+1/2, -z'
  12  '-y, x, -z'
  13  '-x, y, z'
  14  'y+1/2, x+1/2, z'
  15  'x, -y, z'
  16  '-y+1/2, -x+1/2, z'
loop_
 _atom_site_type_symbol
 _atom_site_label
 _atom_site_symmetry_multiplicity
 _atom_site_fract_x
 _atom_site_fract_y
 _atom_site_fract_z
 _atom_site_occupancy
  Si  Si0  16  0.08440000  0.18580000  0.08630000  1
  Si  Si1  16  0.08440000  0.29650000  0.83950000  1
  Si  Si2  16  0.18420000  0.19560000  0.66280000  1
  O  O3  16  0.09280000  0.25910000  0.99430000  1
  O  O4  16  0.11700000  0.24340000  0.71880000  1
  O  O5  16  0.12510000  0.19400000  0.23780000  1
  O  O6  8  0.00000000  0.16970000  0.11580000  1
  O  O7  8  0.00000000  0.31140000  0.80700000  1
  O  O8  8  0.11860000  0.11860000  0.00000000  1
  O  O9  8  0.12780000  0.37220000  0.83760000  1
  O  O10  8  0.17040000  0.17040000  0.50000000  1
  O  O11  8  0.24240000  0.25760000  0.33000000  1
