# generated using pymatgen
data_SiO2
_symmetry_space_group_name_H-M   'P 1'
_cell_length_a   18.65300000
_cell_length_b   18.65300000
_cell_length_c   9.44100000
_cell_angle_alpha   90.00000000
_cell_angle_beta   90.00000000
_cell_angle_gamma   90.00000000
_symmetry_Int_Tables_number   1
_chemical_formula_structural   SiO2
_chemical_formula_sum   'Si48 O96'
_cell_volume   3284.84875537
_cell_formula_units_Z   48
loop_
 _symmetry_equiv_pos_site_id
 _symmetry_equiv_pos_as_xyz
  1  'x, y, z'
loop_
 _atom_site_type_symbol
 _atom_site_label
 _atom_site_symmetry_multiplicity
 _atom_site_fract_x
 _atom_site_fract_y
 _atom_site_fract_z
 _atom_site_occupancy
  Si  Si0  1  0.08440000  0.18580000  0.08630000  1.0
  Si  Si1  1  0.31420000  0.58440000  0.08630000  1.0
  Si  Si2  1  0.91560000  0.81420000  0.08630000  1.0
  Si  Si3  1  0.68580000  0.41560000  0.08630000  1.0
  Si  Si4  1  0.58440000  0.31420000  0.91370000  1.0
  Si  Si5  1  0.81420000  0.91560000  0.91370000  1.0
  Si  Si6  1  0.41560000  0.68580000  0.91370000  1.0
  Si  Si7  1  0.18580000  0.08440000  0.91370000  1.0
  Si  Si8  1  0.41560000  0.31420000  0.91370000  1.0
  Si  Si9  1  0.18580000  0.91560000  0.91370000  1.0
  Si  Si10  1  0.58440000  0.68580000  0.91370000  1.0
  Si  Si11  1  0.81420000  0.08440000  0.91370000  1.0
  Si  Si12  1  0.91560000  0.18580000  0.08630000  1.0
  Si  Si13  1  0.68580000  0.58440000  0.08630000  1.0
  Si  Si14  1  0.08440000  0.81420000  0.08630000  1.0
  Si  Si15  1  0.31420000  0.41560000  0.08630000  1.0
  Si  Si16  1  0.08440000  0.29650000  0.83950000  1.0
  Si  Si17  1  0.20350000  0.58440000  0.83950000  1.0
  Si  Si18  1  0.91560000  0.70350000  0.83950000  1.0
  Si  Si19  1  0.79650000  0.41560000  0.83950000  1.0
  Si  Si20  1  0.58440000  0.20350000  0.16050000  1.0
  Si  Si21  1  0.70350000  0.91560000  0.16050000  1.0
  Si  Si22  1  0.41560000  0.79650000  0.16050000  1.0
  Si  Si23  1  0.29650000  0.08440000  0.16050000  1.0
  Si  Si24  1  0.41560000  0.20350000  0.16050000  1.0
  Si  Si25  1  0.29650000  0.91560000  0.16050000  1.0
  Si  Si26  1  0.58440000  0.79650000  0.16050000  1.0
  Si  Si27  1  0.70350000  0.08440000  0.16050000  1.0
  Si  Si28  1  0.91560000  0.29650000  0.83950000  1.0
  Si  Si29  1  0.79650000  0.58440000  0.83950000  1.0
  Si  Si30  1  0.08440000  0.70350000  0.83950000  1.0
  Si  Si31  1  0.20350000  0.41560000  0.83950000  1.0
  Si  Si32  1  0.18420000  0.19560000  0.66280000  1.0
  Si  Si33  1  0.30440000  0.68420000  0.66280000  1.0
  Si  Si34  1  0.81580000  0.80440000  0.66280000  1.0
  Si  Si35  1  0.69560000  0.31580000  0.66280000  1.0
  Si  Si36  1  0.68420000  0.30440000  0.33720000  1.0
  Si  Si37  1  0.80440000  0.81580000  0.33720000  1.0
  Si  Si38  1  0.31580000  0.69560000  0.33720000  1.0
  Si  Si39  1  0.19560000  0.18420000  0.33720000  1.0
  Si  Si40  1  0.31580000  0.30440000  0.33720000  1.0
  Si  Si41  1  0.19560000  0.81580000  0.33720000  1.0
  Si  Si42  1  0.68420000  0.69560000  0.33720000  1.0
  Si  Si43  1  0.80440000  0.18420000  0.33720000  1.0
  Si  Si44  1  0.81580000  0.19560000  0.66280000  1.0
  Si  Si45  1  0.69560000  0.68420000  0.66280000  1.0
  Si  Si46  1  0.18420000  0.80440000  0.66280000  1.0
  Si  Si47  1  0.30440000  0.31580000  0.66280000  1.0
  O  O48  1  0.09280000  0.25910000  0.99430000  1.0
  O  O49  1  0.24090000  0.59280000  0.99430000  1.0
  O  O50  1  0.90720000  0.74090000  0.99430000  1.0
  O  O51  1  0.75910000  0.40720000  0.99430000  1.0
  O  O52  1  0.59280000  0.24090000  0.00570000  1.0
  O  O53  1  0.74090000  0.90720000  0.00570000  1.0
  O  O54  1  0.40720000  0.75910000  0.00570000  1.0
  O  O55  1  0.25910000  0.09280000  0.00570000  1.0
  O  O56  1  0.40720000  0.24090000  0.00570000  1.0
  O  O57  1  0.25910000  0.90720000  0.00570000  1.0
  O  O58  1  0.59280000  0.75910000  0.00570000  1.0
  O  O59  1  0.74090000  0.09280000  0.00570000  1.0
  O  O60  1  0.90720000  0.25910000  0.99430000  1.0
  O  O61  1  0.75910000  0.59280000  0.99430000  1.0
  O  O62  1  0.09280000  0.74090000  0.99430000  1.0
  O  O63  1  0.24090000  0.40720000  0.99430000  1.0
  O  O64  1  0.11700000  0.24340000  0.71880000  1.0
  O  O65  1  0.25660000  0.61700000  0.71880000  1.0
  O  O66  1  0.88300000  0.75660000  0.71880000  1.0
  O  O67  1  0.74340000  0.38300000  0.71880000  1.0
  O  O68  1  0.61700000  0.25660000  0.28120000  1.0
  O  O69  1  0.75660000  0.88300000  0.28120000  1.0
  O  O70  1  0.38300000  0.74340000  0.28120000  1.0
  O  O71  1  0.24340000  0.11700000  0.28120000  1.0
  O  O72  1  0.38300000  0.25660000  0.28120000  1.0
  O  O73  1  0.24340000  0.88300000  0.28120000  1.0
  O  O74  1  0.61700000  0.74340000  0.28120000  1.0
  O  O75  1  0.75660000  0.11700000  0.28120000  1.0
  O  O76  1  0.88300000  0.24340000  0.71880000  1.0
  O  O77  1  0.74340000  0.61700000  0.71880000  1.0
  O  O78  1  0.11700000  0.75660000  0.71880000  1.0
  O  O79  1  0.25660000  0.38300000  0.71880000  1.0
  O  O80  1  0.12510000  0.19400000  0.23780000  1.0
  O  O81  1  0.30600000  0.62510000  0.23780000  1.0
  O  O82  1  0.87490000  0.80600000  0.23780000  1.0
  O  O83  1  0.69400000  0.37490000  0.23780000  1.0
  O  O84  1  0.62510000  0.30600000  0.76220000  1.0
  O  O85  1  0.80600000  0.87490000  0.76220000  1.0
  O  O86  1  0.37490000  0.69400000  0.76220000  1.0
  O  O87  1  0.19400000  0.12510000  0.76220000  1.0
  O  O88  1  0.37490000  0.30600000  0.76220000  1.0
  O  O89  1  0.19400000  0.87490000  0.76220000  1.0
  O  O90  1  0.62510000  0.69400000  0.76220000  1.0
  O  O91  1  0.80600000  0.12510000  0.76220000  1.0
  O  O92  1  0.87490000  0.19400000  0.23780000  1.0
  O  O93  1  0.69400000  0.62510000  0.23780000  1.0
  O  O94  1  0.12510000  0.80600000  0.23780000  1.0
  O  O95  1  0.30600000  0.37490000  0.23780000  1.0
  O  O96  1  0.00000000  0.16970000  0.11580000  1.0
  O  O97  1  0.33030000  0.50000000  0.11580000  1.0
  O  O98  1  0.00000000  0.83030000  0.11580000  1.0
  O  O99  1  0.66970000  0.50000000  0.11580000  1.0
  O  O100  1  0.50000000  0.33030000  0.88420000  1.0
  O  O101  1  0.83030000  0.00000000  0.88420000  1.0
  O  O102  1  0.50000000  0.66970000  0.88420000  1.0
  O  O103  1  0.16970000  0.00000000  0.88420000  1.0
  O  O104  1  0.00000000  0.31140000  0.80700000  1.0
  O  O105  1  0.18860000  0.50000000  0.80700000  1.0
  O  O106  1  0.00000000  0.68860000  0.80700000  1.0
  O  O107  1  0.81140000  0.50000000  0.80700000  1.0
  O  O108  1  0.50000000  0.18860000  0.19300000  1.0
  O  O109  1  0.68860000  0.00000000  0.19300000  1.0
  O  O110  1  0.50000000  0.81140000  0.19300000  1.0
  O  O111  1  0.31140000  0.00000000  0.19300000  1.0
  O  O112  1  0.11860000  0.11860000  0.00000000  1.0
  O  O113  1  0.38140000  0.61860000  0.00000000  1.0
  O  O114  1  0.88140000  0.88140000  0.00000000  1.0
  O  O115  1  0.61860000  0.38140000  0.00000000  1.0
  O  O116  1  0.38140000  0.38140000  0.00000000  1.0
  O  O117  1  0.11860000  0.88140000  0.00000000  1.0
  O  O118  1  0.61860000  0.61860000  0.00000000  1.0
  O  O119  1  0.88140000  0.11860000  0.00000000  1.0
  O  O120  1  0.12780000  0.37220000  0.83760000  1.0
  O  O121  1  0.12780000  0.62780000  0.83760000  1.0
  O  O122  1  0.87220000  0.62780000  0.83760000  1.0
  O  O123  1  0.87220000  0.37220000  0.83760000  1.0
  O  O124  1  0.62780000  0.12780000  0.16240000  1.0
  O  O125  1  0.62780000  0.87220000  0.16240000  1.0
  O  O126  1  0.37220000  0.87220000  0.16240000  1.0
  O  O127  1  0.37220000  0.12780000  0.16240000  1.0
  O  O128  1  0.17040000  0.17040000  0.50000000  1.0
  O  O129  1  0.32960000  0.67040000  0.50000000  1.0
  O  O130  1  0.82960000  0.82960000  0.50000000  1.0
  O  O131  1  0.67040000  0.32960000  0.50000000  1.0
  O  O132  1  0.32960000  0.32960000  0.50000000  1.0
  O  O133  1  0.17040000  0.82960000  0.50000000  1.0
  O  O134  1  0.67040000  0.67040000  0.50000000  1.0
  O  O135  1  0.82960000  0.17040000  0.50000000  1.0
  O  O136  1  0.24240000  0.25760000  0.33000000  1.0
  O  O137  1  0.24240000  0.74240000  0.33000000  1.0
  O  O138  1  0.75760000  0.74240000  0.33000000  1.0
  O  O139  1  0.75760000  0.25760000  0.33000000  1.0
  O  O140  1  0.74240000  0.24240000  0.67000000  1.0
  O  O141  1  0.74240000  0.75760000  0.67000000  1.0
  O  O142  1  0.25760000  0.75760000  0.67000000  1.0
  O  O143  1  0.25760000  0.24240000  0.67000000  1.0
