# generated using pymatgen
data_SiO2
_symmetry_space_group_name_H-M   P6_3/mmc
_cell_length_a   17.19300010
_cell_length_b   17.19300010
_cell_length_c   27.33300000
_cell_angle_alpha   90.00000000
_cell_angle_beta   90.00000000
_cell_angle_gamma   120.00000000
_symmetry_Int_Tables_number   194
_chemical_formula_structural   SiO2
_chemical_formula_sum   'Si96 O192'
_cell_volume   6997.15129517
_cell_formula_units_Z   96
loop_
 _symmetry_equiv_pos_site_id
 _symmetry_equiv_pos_as_xyz
  1  'x, y, z'
  2  '-x, -y, -z'
  3  'x-y, x, z+1/2'
  4  '-x+y, -x, -z+1/2'
  5  '-y, x-y, z'
  6  'y, -x+y, -z'
  7  '-x, -y, z+1/2'
  8  'x, y, -z+1/2'
  9  '-x+y, -x, z'
  10  'x-y, x, -z'
  11  'y, -x+y, z+1/2'
  12  '-y, x-y, -z+1/2'
  13  '-y, -x, -z+1/2'
  14  'y, x, z+1/2'
  15  '-x, -x+y, -z'
  16  'x, x-y, z'
  17  '-x+y, y, -z+1/2'
  18  'x-y, -y, z+1/2'
  19  'y, x, -z'
  20  '-y, -x, z'
  21  'x, x-y, -z+1/2'
  22  '-x, -x+y, z+1/2'
  23  'x-y, -y, -z'
  24  '-x+y, y, z'
loop_
 _atom_site_type_symbol
 _atom_site_label
 _atom_site_symmetry_multiplicity
 _atom_site_fract_x
 _atom_site_fract_y
 _atom_site_fract_z
 _atom_site_occupancy
  Si  Si0  24  0.06320000  0.30570000  0.54360000  1
  Si  Si1  24  0.09510000  0.36900000  0.10370000  1
  Si  Si2  24  0.15490000  0.48800000  0.19410000  1
  Si  Si3  24  0.15590000  0.48800000  0.01210000  1
  O  O4  24  0.00290000  0.28800000  0.59200000  1
  O  O5  24  0.09700000  0.40360000  0.15870000  1
  O  O6  24  0.10770000  0.40950000  0.52790000  1
  O  O7  24  0.11700000  0.44890000  0.06570000  1
  O  O8  12  0.00000000  0.24300000  0.00000000  1
  O  O9  12  0.12410000  0.45950000  0.25000000  1
  O  O10  12  0.13720000  0.56860000  0.50060000  1
  O  O11  12  0.13880000  0.56940000  0.17910000  1
  O  O12  12  0.14095000  0.28190000  0.55470000  1
  O  O13  12  0.16920000  0.33840000  0.09830000  1
  O  O14  12  0.25980000  0.51960000  0.18870000  1
  O  O15  12  0.26245000  0.52490000  0.01140000  1
