# generated using pymatgen
data_SiO2
_symmetry_space_group_name_H-M   'P 1'
_cell_length_a   17.19100000
_cell_length_b   17.19100000
_cell_length_c   41.02999999
_cell_angle_alpha   90.00000000
_cell_angle_beta   90.00000000
_cell_angle_gamma   120.00000000
_symmetry_Int_Tables_number   1
_chemical_formula_structural   SiO2
_chemical_formula_sum   'Si144 O288'
_cell_volume   10501.09116956
_cell_formula_units_Z   144
loop_
 _symmetry_equiv_pos_site_id
 _symmetry_equiv_pos_as_xyz
  1  'x, y, z'
loop_
 _atom_site_type_symbol
 _atom_site_label
 _atom_site_symmetry_multiplicity
 _atom_site_fract_x
 _atom_site_fract_y
 _atom_site_fract_z
 _atom_site_occupancy
  Si  Si0  1  0.66613333  0.15446667  0.79606667  1.0
  Si  Si1  1  0.48833333  0.33386667  0.79606667  1.0
  Si  Si2  1  0.84553333  0.51166667  0.79606667  1.0
  Si  Si3  1  0.66613333  0.51166667  0.79606667  1.0
  Si  Si4  1  0.48833333  0.15446667  0.79606667  1.0
  Si  Si5  1  0.84553333  0.33386667  0.79606667  1.0
  Si  Si6  1  0.66720000  0.51220000  0.87060000  1.0
  Si  Si7  1  0.84500000  0.33280000  0.87060000  1.0
  Si  Si8  1  0.48780000  0.15500000  0.87060000  1.0
  Si  Si9  1  0.66720000  0.15500000  0.87060000  1.0
  Si  Si10  1  0.84500000  0.51220000  0.87060000  1.0
  Si  Si11  1  0.48780000  0.33280000  0.87060000  1.0
  Si  Si12  1  0.30560000  0.24240000  0.02910000  1.0
  Si  Si13  1  0.93680000  0.69440000  0.02910000  1.0
  Si  Si14  1  0.75760000  0.06320000  0.02910000  1.0
  Si  Si15  1  0.30560000  0.06320000  0.02910000  1.0
  Si  Si16  1  0.93680000  0.24240000  0.02910000  1.0
  Si  Si17  1  0.75760000  0.69440000  0.02910000  1.0
  Si  Si18  1  0.02773333  0.42426667  0.63756667  1.0
  Si  Si19  1  0.39653333  0.97226667  0.63756667  1.0
  Si  Si20  1  0.57573333  0.60346667  0.63756667  1.0
  Si  Si21  1  0.02773333  0.60346667  0.63756667  1.0
  Si  Si22  1  0.39653333  0.42426667  0.63756667  1.0
  Si  Si23  1  0.57573333  0.97226667  0.63756667  1.0
  Si  Si24  1  0.60733333  0.57156667  0.73576667  1.0
  Si  Si25  1  0.96423333  0.39266667  0.73576667  1.0
  Si  Si26  1  0.42843333  0.03576667  0.73576667  1.0
  Si  Si27  1  0.60733333  0.03576667  0.73576667  1.0
  Si  Si28  1  0.96423333  0.57156667  0.73576667  1.0
  Si  Si29  1  0.42843333  0.39266667  0.73576667  1.0
  Si  Si30  1  0.72600000  0.09510000  0.93090000  1.0
  Si  Si31  1  0.36910000  0.27400000  0.93090000  1.0
  Si  Si32  1  0.90490000  0.63090000  0.93090000  1.0
  Si  Si33  1  0.72600000  0.63090000  0.93090000  1.0
  Si  Si34  1  0.36910000  0.09510000  0.93090000  1.0
  Si  Si35  1  0.90490000  0.27400000  0.93090000  1.0
  Si  Si36  1  0.66790000  0.51200000  0.99190000  1.0
  Si  Si37  1  0.84410000  0.33210000  0.99190000  1.0
  Si  Si38  1  0.48800000  0.15590000  0.99190000  1.0
  Si  Si39  1  0.66790000  0.15590000  0.99190000  1.0
  Si  Si40  1  0.84410000  0.51200000  0.99190000  1.0
  Si  Si41  1  0.48800000  0.33210000  0.99190000  1.0
  Si  Si42  1  0.66543333  0.15466667  0.67476667  1.0
  Si  Si43  1  0.48923333  0.33456667  0.67476667  1.0
  Si  Si44  1  0.84533333  0.51076667  0.67476667  1.0
  Si  Si45  1  0.66543333  0.51076667  0.67476667  1.0
  Si  Si46  1  0.48923333  0.15466667  0.67476667  1.0
  Si  Si47  1  0.84533333  0.33456667  0.67476667  1.0
  Si  Si48  1  0.33280000  0.48780000  0.12940000  1.0
  Si  Si49  1  0.15500000  0.66720000  0.12940000  1.0
  Si  Si50  1  0.51220000  0.84500000  0.12940000  1.0
  Si  Si51  1  0.33280000  0.84500000  0.12940000  1.0
  Si  Si52  1  0.15500000  0.48780000  0.12940000  1.0
  Si  Si53  1  0.51220000  0.66720000  0.12940000  1.0
  Si  Si54  1  0.33386667  0.84553333  0.20393333  1.0
  Si  Si55  1  0.51166667  0.66613333  0.20393333  1.0
  Si  Si56  1  0.15446667  0.48833333  0.20393333  1.0
  Si  Si57  1  0.33386667  0.48833333  0.20393333  1.0
  Si  Si58  1  0.51166667  0.84553333  0.20393333  1.0
  Si  Si59  1  0.15446667  0.66613333  0.20393333  1.0
  Si  Si60  1  0.97226667  0.57573333  0.36243333  1.0
  Si  Si61  1  0.60346667  0.02773333  0.36243333  1.0
  Si  Si62  1  0.42426667  0.39653333  0.36243333  1.0
  Si  Si63  1  0.97226667  0.39653333  0.36243333  1.0
  Si  Si64  1  0.60346667  0.57573333  0.36243333  1.0
  Si  Si65  1  0.42426667  0.02773333  0.36243333  1.0
  Si  Si66  1  0.69440000  0.75760000  0.97090000  1.0
  Si  Si67  1  0.06320000  0.30560000  0.97090000  1.0
  Si  Si68  1  0.24240000  0.93680000  0.97090000  1.0
  Si  Si69  1  0.69440000  0.93680000  0.97090000  1.0
  Si  Si70  1  0.06320000  0.75760000  0.97090000  1.0
  Si  Si71  1  0.24240000  0.30560000  0.97090000  1.0
  Si  Si72  1  0.27400000  0.90490000  0.06910000  1.0
  Si  Si73  1  0.63090000  0.72600000  0.06910000  1.0
  Si  Si74  1  0.09510000  0.36910000  0.06910000  1.0
  Si  Si75  1  0.27400000  0.36910000  0.06910000  1.0
  Si  Si76  1  0.63090000  0.90490000  0.06910000  1.0
  Si  Si77  1  0.09510000  0.72600000  0.06910000  1.0
  Si  Si78  1  0.39266667  0.42843333  0.26423333  1.0
  Si  Si79  1  0.03576667  0.60733333  0.26423333  1.0
  Si  Si80  1  0.57156667  0.96423333  0.26423333  1.0
  Si  Si81  1  0.39266667  0.96423333  0.26423333  1.0
  Si  Si82  1  0.03576667  0.42843333  0.26423333  1.0
  Si  Si83  1  0.57156667  0.60733333  0.26423333  1.0
  Si  Si84  1  0.33456667  0.84533333  0.32523333  1.0
  Si  Si85  1  0.51076667  0.66543333  0.32523333  1.0
  Si  Si86  1  0.15466667  0.48923333  0.32523333  1.0
  Si  Si87  1  0.33456667  0.48923333  0.32523333  1.0
  Si  Si88  1  0.51076667  0.84533333  0.32523333  1.0
  Si  Si89  1  0.15466667  0.66543333  0.32523333  1.0
  Si  Si90  1  0.33210000  0.48800000  0.00810000  1.0
  Si  Si91  1  0.15590000  0.66790000  0.00810000  1.0
  Si  Si92  1  0.51200000  0.84410000  0.00810000  1.0
  Si  Si93  1  0.33210000  0.84410000  0.00810000  1.0
  Si  Si94  1  0.15590000  0.48800000  0.00810000  1.0
  Si  Si95  1  0.51200000  0.66790000  0.00810000  1.0
  Si  Si96  1  0.99946667  0.82113333  0.46273333  1.0
  Si  Si97  1  0.82166667  0.00053333  0.46273333  1.0
  Si  Si98  1  0.17886667  0.17833333  0.46273333  1.0
  Si  Si99  1  0.99946667  0.17833333  0.46273333  1.0
  Si  Si100  1  0.82166667  0.82113333  0.46273333  1.0
  Si  Si101  1  0.17886667  0.00053333  0.46273333  1.0
  Si  Si102  1  0.00053333  0.17886667  0.53726667  1.0
  Si  Si103  1  0.17833333  0.99946667  0.53726667  1.0
  Si  Si104  1  0.82113333  0.82166667  0.53726667  1.0
  Si  Si105  1  0.00053333  0.82166667  0.53726667  1.0
  Si  Si106  1  0.17833333  0.17886667  0.53726667  1.0
  Si  Si107  1  0.82113333  0.99946667  0.53726667  1.0
  Si  Si108  1  0.63893333  0.90906667  0.69576667  1.0
  Si  Si109  1  0.27013333  0.36106667  0.69576667  1.0
  Si  Si110  1  0.09093333  0.72986667  0.69576667  1.0
  Si  Si111  1  0.63893333  0.72986667  0.69576667  1.0
  Si  Si112  1  0.27013333  0.90906667  0.69576667  1.0
  Si  Si113  1  0.09093333  0.36106667  0.69576667  1.0
  Si  Si114  1  0.36106667  0.09093333  0.30423333  1.0
  Si  Si115  1  0.72986667  0.63893333  0.30423333  1.0
  Si  Si116  1  0.90906667  0.27013333  0.30423333  1.0
  Si  Si117  1  0.36106667  0.27013333  0.30423333  1.0
  Si  Si118  1  0.72986667  0.09093333  0.30423333  1.0
  Si  Si119  1  0.90906667  0.63893333  0.30423333  1.0
  Si  Si120  1  0.94066667  0.23823333  0.40243333  1.0
  Si  Si121  1  0.29756667  0.05933333  0.40243333  1.0
  Si  Si122  1  0.76176667  0.70243333  0.40243333  1.0
  Si  Si123  1  0.94066667  0.70243333  0.40243333  1.0
  Si  Si124  1  0.29756667  0.23823333  0.40243333  1.0
  Si  Si125  1  0.76176667  0.05933333  0.40243333  1.0
  Si  Si126  1  0.05933333  0.76176667  0.59756667  1.0
  Si  Si127  1  0.70243333  0.94066667  0.59756667  1.0
  Si  Si128  1  0.23823333  0.29756667  0.59756667  1.0
  Si  Si129  1  0.05933333  0.29756667  0.59756667  1.0
  Si  Si130  1  0.70243333  0.76176667  0.59756667  1.0
  Si  Si131  1  0.23823333  0.94066667  0.59756667  1.0
  Si  Si132  1  0.00123333  0.17866667  0.65856667  1.0
  Si  Si133  1  0.17743333  0.99876667  0.65856667  1.0
  Si  Si134  1  0.82133333  0.82256667  0.65856667  1.0
  Si  Si135  1  0.00123333  0.82256667  0.65856667  1.0
  Si  Si136  1  0.17743333  0.17866667  0.65856667  1.0
  Si  Si137  1  0.82133333  0.99876667  0.65856667  1.0
  Si  Si138  1  0.99876667  0.82133333  0.34143333  1.0
  Si  Si139  1  0.82256667  0.00123333  0.34143333  1.0
  Si  Si140  1  0.17866667  0.17743333  0.34143333  1.0
  Si  Si141  1  0.99876667  0.17743333  0.34143333  1.0
  Si  Si142  1  0.82256667  0.82133333  0.34143333  1.0
  Si  Si143  1  0.17866667  0.00123333  0.34143333  1.0
  O  O144  1  0.76423333  0.23576667  0.78656667  1.0
  O  O145  1  0.47153333  0.23576667  0.78656667  1.0
  O  O146  1  0.76423333  0.52846667  0.78656667  1.0
  O  O147  1  0.56910000  0.43090000  0.88010000  1.0
  O  O148  1  0.86180000  0.43090000  0.88010000  1.0
  O  O149  1  0.56910000  0.13820000  0.88010000  1.0
  O  O150  1  0.59328333  0.18656667  0.79206667  1.0
  O  O151  1  0.59328333  0.40671667  0.79206667  1.0
  O  O152  1  0.81343333  0.40671667  0.79206667  1.0
  O  O153  1  0.74005000  0.48010000  0.87460000  1.0
  O  O154  1  0.74005000  0.25995000  0.87460000  1.0
  O  O155  1  0.51990000  0.25995000  0.87460000  1.0
  O  O156  1  0.64023333  0.07036667  0.77236667  1.0
  O  O157  1  0.43013333  0.35976667  0.77236667  1.0
  O  O158  1  0.92963333  0.56986667  0.77236667  1.0
  O  O159  1  0.64023333  0.56986667  0.77236667  1.0
  O  O160  1  0.43013333  0.07036667  0.77236667  1.0
  O  O161  1  0.92963333  0.35976667  0.77236667  1.0
  O  O162  1  0.69310000  0.59630000  0.89430000  1.0
  O  O163  1  0.90320000  0.30690000  0.89430000  1.0
  O  O164  1  0.40370000  0.09680000  0.89430000  1.0
  O  O165  1  0.69310000  0.09680000  0.89430000  1.0
  O  O166  1  0.90320000  0.59630000  0.89430000  1.0
  O  O167  1  0.40370000  0.30690000  0.89430000  1.0
  O  O168  1  0.66666667  0.12518333  0.83333333  1.0
  O  O169  1  0.45851667  0.33333333  0.83333333  1.0
  O  O170  1  0.87481667  0.54148333  0.83333333  1.0
  O  O171  1  0.66666667  0.54148333  0.83333333  1.0
  O  O172  1  0.45851667  0.12518333  0.83333333  1.0
  O  O173  1  0.87481667  0.33333333  0.83333333  1.0
  O  O174  1  0.56860000  0.43140000  0.00040000  1.0
  O  O175  1  0.86280000  0.43140000  0.00040000  1.0
  O  O176  1  0.56860000  0.13720000  0.00040000  1.0
  O  O177  1  0.76473333  0.23526667  0.66626667  1.0
  O  O178  1  0.47053333  0.23526667  0.66626667  1.0
  O  O179  1  0.76473333  0.52946667  0.66626667  1.0
  O  O180  1  0.66810000  0.55110000  0.95630000  1.0
  O  O181  1  0.88300000  0.33190000  0.95630000  1.0
  O  O182  1  0.44890000  0.11700000  0.95630000  1.0
  O  O183  1  0.66810000  0.11700000  0.95630000  1.0
  O  O184  1  0.88300000  0.55110000  0.95630000  1.0
  O  O185  1  0.44890000  0.33190000  0.95630000  1.0
  O  O186  1  0.66523333  0.11556667  0.71036667  1.0
  O  O187  1  0.45033333  0.33476667  0.71036667  1.0
  O  O188  1  0.88443333  0.54966667  0.71036667  1.0
  O  O189  1  0.66523333  0.54966667  0.71036667  1.0
  O  O190  1  0.45033333  0.11556667  0.71036667  1.0
  O  O191  1  0.88443333  0.33476667  0.71036667  1.0
  O  O192  1  0.73750000  0.47500000  0.99250000  1.0
  O  O193  1  0.73750000  0.26250000  0.99250000  1.0
  O  O194  1  0.52500000  0.26250000  0.99250000  1.0
  O  O195  1  0.59583333  0.19166667  0.67416667  1.0
  O  O196  1  0.59583333  0.40416667  0.67416667  1.0
  O  O197  1  0.80833333  0.40416667  0.67416667  1.0
  O  O198  1  0.69820000  0.59050000  0.01860000  1.0
  O  O199  1  0.89230000  0.30180000  0.01860000  1.0
  O  O200  1  0.40950000  0.10770000  0.01860000  1.0
  O  O201  1  0.69820000  0.10770000  0.01860000  1.0
  O  O202  1  0.89230000  0.59050000  0.01860000  1.0
  O  O203  1  0.40950000  0.30180000  0.01860000  1.0
  O  O204  1  0.63513333  0.07616667  0.64806667  1.0
  O  O205  1  0.44103333  0.36486667  0.64806667  1.0
  O  O206  1  0.92383333  0.55896667  0.64806667  1.0
  O  O207  1  0.63513333  0.55896667  0.64806667  1.0
  O  O208  1  0.44103333  0.07616667  0.64806667  1.0
  O  O209  1  0.92383333  0.36486667  0.64806667  1.0
  O  O210  1  0.62133333  0.95176667  0.72796667  1.0
  O  O211  1  0.33043333  0.37866667  0.72796667  1.0
  O  O212  1  0.04823333  0.66956667  0.72796667  1.0
  O  O213  1  0.62133333  0.66956667  0.72796667  1.0
  O  O214  1  0.33043333  0.95176667  0.72796667  1.0
  O  O215  1  0.04823333  0.37866667  0.72796667  1.0
  O  O216  1  0.71200000  0.71490000  0.93870000  1.0
  O  O217  1  0.00290000  0.28800000  0.93870000  1.0
  O  O218  1  0.28510000  0.99710000  0.93870000  1.0
  O  O219  1  0.71200000  0.99710000  0.93870000  1.0
  O  O220  1  0.00290000  0.71490000  0.93870000  1.0
  O  O221  1  0.28510000  0.28800000  0.93870000  1.0
  O  O222  1  0.24290000  0.24290000  0.00000000  1.0
  O  O223  1  0.00000000  0.75710000  0.00000000  1.0
  O  O224  1  0.09043333  0.66666667  0.66666667  1.0
  O  O225  1  0.57623333  0.66666667  0.66666667  1.0
  O  O226  1  0.00000000  0.24290000  0.00000000  1.0
  O  O227  1  0.75710000  0.75710000  0.00000000  1.0
  O  O228  1  0.28180000  0.14090000  0.03640000  1.0
  O  O229  1  0.85910000  0.71820000  0.03640000  1.0
  O  O230  1  0.85910000  0.14090000  0.03640000  1.0
  O  O231  1  0.05153333  0.52576667  0.63026667  1.0
  O  O232  1  0.47423333  0.94846667  0.63026667  1.0
  O  O233  1  0.47423333  0.52576667  0.63026667  1.0
  O  O234  1  0.50263333  0.49736667  0.73216667  1.0
  O  O235  1  0.99473333  0.49736667  0.73216667  1.0
  O  O236  1  0.50263333  0.00526667  0.73216667  1.0
  O  O237  1  0.83070000  0.16930000  0.93450000  1.0
  O  O238  1  0.33860000  0.16930000  0.93450000  1.0
  O  O239  1  0.83070000  0.66140000  0.93450000  1.0
  O  O240  1  0.43090000  0.56910000  0.11990000  1.0
  O  O241  1  0.13820000  0.56910000  0.11990000  1.0
  O  O242  1  0.43090000  0.86180000  0.11990000  1.0
  O  O243  1  0.23576667  0.76423333  0.21343333  1.0
  O  O244  1  0.52846667  0.76423333  0.21343333  1.0
  O  O245  1  0.23576667  0.47153333  0.21343333  1.0
  O  O246  1  0.25995000  0.51990000  0.12540000  1.0
  O  O247  1  0.25995000  0.74005000  0.12540000  1.0
  O  O248  1  0.48010000  0.74005000  0.12540000  1.0
  O  O249  1  0.40671667  0.81343333  0.20793333  1.0
  O  O250  1  0.40671667  0.59328333  0.20793333  1.0
  O  O251  1  0.18656667  0.59328333  0.20793333  1.0
  O  O252  1  0.30690000  0.40370000  0.10570000  1.0
  O  O253  1  0.09680000  0.69310000  0.10570000  1.0
  O  O254  1  0.59630000  0.90320000  0.10570000  1.0
  O  O255  1  0.30690000  0.90320000  0.10570000  1.0
  O  O256  1  0.09680000  0.40370000  0.10570000  1.0
  O  O257  1  0.59630000  0.69310000  0.10570000  1.0
  O  O258  1  0.35976667  0.92963333  0.22763333  1.0
  O  O259  1  0.56986667  0.64023333  0.22763333  1.0
  O  O260  1  0.07036667  0.43013333  0.22763333  1.0
  O  O261  1  0.35976667  0.43013333  0.22763333  1.0
  O  O262  1  0.56986667  0.92963333  0.22763333  1.0
  O  O263  1  0.07036667  0.64023333  0.22763333  1.0
  O  O264  1  0.33333333  0.45851667  0.16666667  1.0
  O  O265  1  0.12518333  0.66666667  0.16666667  1.0
  O  O266  1  0.54148333  0.87481667  0.16666667  1.0
  O  O267  1  0.33333333  0.87481667  0.16666667  1.0
  O  O268  1  0.12518333  0.45851667  0.16666667  1.0
  O  O269  1  0.54148333  0.66666667  0.16666667  1.0
  O  O270  1  0.23526667  0.76473333  0.33373333  1.0
  O  O271  1  0.52946667  0.76473333  0.33373333  1.0
  O  O272  1  0.23526667  0.47053333  0.33373333  1.0
  O  O273  1  0.43140000  0.56860000  0.99960000  1.0
  O  O274  1  0.13720000  0.56860000  0.99960000  1.0
  O  O275  1  0.43140000  0.86280000  0.99960000  1.0
  O  O276  1  0.33476667  0.88443333  0.28963333  1.0
  O  O277  1  0.54966667  0.66523333  0.28963333  1.0
  O  O278  1  0.11556667  0.45033333  0.28963333  1.0
  O  O279  1  0.33476667  0.45033333  0.28963333  1.0
  O  O280  1  0.54966667  0.88443333  0.28963333  1.0
  O  O281  1  0.11556667  0.66523333  0.28963333  1.0
  O  O282  1  0.33190000  0.44890000  0.04370000  1.0
  O  O283  1  0.11700000  0.66810000  0.04370000  1.0
  O  O284  1  0.55110000  0.88300000  0.04370000  1.0
  O  O285  1  0.33190000  0.88300000  0.04370000  1.0
  O  O286  1  0.11700000  0.44890000  0.04370000  1.0
  O  O287  1  0.55110000  0.66810000  0.04370000  1.0
  O  O288  1  0.40416667  0.80833333  0.32583333  1.0
  O  O289  1  0.40416667  0.59583333  0.32583333  1.0
  O  O290  1  0.19166667  0.59583333  0.32583333  1.0
  O  O291  1  0.26250000  0.52500000  0.00750000  1.0
  O  O292  1  0.26250000  0.73750000  0.00750000  1.0
  O  O293  1  0.47500000  0.73750000  0.00750000  1.0
  O  O294  1  0.36486667  0.92383333  0.35193333  1.0
  O  O295  1  0.55896667  0.63513333  0.35193333  1.0
  O  O296  1  0.07616667  0.44103333  0.35193333  1.0
  O  O297  1  0.36486667  0.44103333  0.35193333  1.0
  O  O298  1  0.55896667  0.92383333  0.35193333  1.0
  O  O299  1  0.07616667  0.63513333  0.35193333  1.0
  O  O300  1  0.30180000  0.40950000  0.98140000  1.0
  O  O301  1  0.10770000  0.69820000  0.98140000  1.0
  O  O302  1  0.59050000  0.89230000  0.98140000  1.0
  O  O303  1  0.30180000  0.89230000  0.98140000  1.0
  O  O304  1  0.10770000  0.40950000  0.98140000  1.0
  O  O305  1  0.59050000  0.69820000  0.98140000  1.0
  O  O306  1  0.28800000  0.28510000  0.06130000  1.0
  O  O307  1  0.99710000  0.71200000  0.06130000  1.0
  O  O308  1  0.71490000  0.00290000  0.06130000  1.0
  O  O309  1  0.28800000  0.00290000  0.06130000  1.0
  O  O310  1  0.99710000  0.28510000  0.06130000  1.0
  O  O311  1  0.71490000  0.71200000  0.06130000  1.0
  O  O312  1  0.37866667  0.04823333  0.27203333  1.0
  O  O313  1  0.66956667  0.62133333  0.27203333  1.0
  O  O314  1  0.95176667  0.33043333  0.27203333  1.0
  O  O315  1  0.37866667  0.33043333  0.27203333  1.0
  O  O316  1  0.66956667  0.04823333  0.27203333  1.0
  O  O317  1  0.95176667  0.62133333  0.27203333  1.0
  O  O318  1  0.90956667  0.57623333  0.33333333  1.0
  O  O319  1  0.66666667  0.09043333  0.33333333  1.0
  O  O320  1  0.75710000  0.00000000  0.00000000  1.0
  O  O321  1  0.24290000  0.00000000  0.00000000  1.0
  O  O322  1  0.66666667  0.57623333  0.33333333  1.0
  O  O323  1  0.42376667  0.09043333  0.33333333  1.0
  O  O324  1  0.94846667  0.47423333  0.36973333  1.0
  O  O325  1  0.52576667  0.05153333  0.36973333  1.0
  O  O326  1  0.52576667  0.47423333  0.36973333  1.0
  O  O327  1  0.71820000  0.85910000  0.96360000  1.0
  O  O328  1  0.14090000  0.28180000  0.96360000  1.0
  O  O329  1  0.14090000  0.85910000  0.96360000  1.0
  O  O330  1  0.16930000  0.83070000  0.06550000  1.0
  O  O331  1  0.66140000  0.83070000  0.06550000  1.0
  O  O332  1  0.16930000  0.33860000  0.06550000  1.0
  O  O333  1  0.49736667  0.50263333  0.26783333  1.0
  O  O334  1  0.00526667  0.50263333  0.26783333  1.0
  O  O335  1  0.49736667  0.99473333  0.26783333  1.0
  O  O336  1  0.09756667  0.90243333  0.45323333  1.0
  O  O337  1  0.80486667  0.90243333  0.45323333  1.0
  O  O338  1  0.09756667  0.19513333  0.45323333  1.0
  O  O339  1  0.90243333  0.09756667  0.54676667  1.0
  O  O340  1  0.19513333  0.09756667  0.54676667  1.0
  O  O341  1  0.90243333  0.80486667  0.54676667  1.0
  O  O342  1  0.92661667  0.85323333  0.45873333  1.0
  O  O343  1  0.92661667  0.07338333  0.45873333  1.0
  O  O344  1  0.14676667  0.07338333  0.45873333  1.0
  O  O345  1  0.07338333  0.14676667  0.54126667  1.0
  O  O346  1  0.07338333  0.92661667  0.54126667  1.0
  O  O347  1  0.85323333  0.92661667  0.54126667  1.0
  O  O348  1  0.97356667  0.73703333  0.43903333  1.0
  O  O349  1  0.76346667  0.02643333  0.43903333  1.0
  O  O350  1  0.26296667  0.23653333  0.43903333  1.0
  O  O351  1  0.97356667  0.23653333  0.43903333  1.0
  O  O352  1  0.76346667  0.73703333  0.43903333  1.0
  O  O353  1  0.26296667  0.02643333  0.43903333  1.0
  O  O354  1  0.02643333  0.26296667  0.56096667  1.0
  O  O355  1  0.23653333  0.97356667  0.56096667  1.0
  O  O356  1  0.73703333  0.76346667  0.56096667  1.0
  O  O357  1  0.02643333  0.76346667  0.56096667  1.0
  O  O358  1  0.23653333  0.26296667  0.56096667  1.0
  O  O359  1  0.73703333  0.97356667  0.56096667  1.0
  O  O360  1  0.00000000  0.79185000  0.50000000  1.0
  O  O361  1  0.79185000  0.00000000  0.50000000  1.0
  O  O362  1  0.20815000  0.20815000  0.50000000  1.0
  O  O363  1  0.00000000  0.20815000  0.50000000  1.0
  O  O364  1  0.79185000  0.79185000  0.50000000  1.0
  O  O365  1  0.20815000  0.00000000  0.50000000  1.0
  O  O366  1  0.90193333  0.09806667  0.66706667  1.0
  O  O367  1  0.19613333  0.09806667  0.66706667  1.0
  O  O368  1  0.90193333  0.80386667  0.66706667  1.0
  O  O369  1  0.09806667  0.90193333  0.33293333  1.0
  O  O370  1  0.80386667  0.90193333  0.33293333  1.0
  O  O371  1  0.09806667  0.19613333  0.33293333  1.0
  O  O372  1  0.00143333  0.21776667  0.62296667  1.0
  O  O373  1  0.21633333  0.99856667  0.62296667  1.0
  O  O374  1  0.78223333  0.78366667  0.62296667  1.0
  O  O375  1  0.00143333  0.78366667  0.62296667  1.0
  O  O376  1  0.21633333  0.21776667  0.62296667  1.0
  O  O377  1  0.78223333  0.99856667  0.62296667  1.0
  O  O378  1  0.99856667  0.78223333  0.37703333  1.0
  O  O379  1  0.78366667  0.00143333  0.37703333  1.0
  O  O380  1  0.21776667  0.21633333  0.37703333  1.0
  O  O381  1  0.99856667  0.21633333  0.37703333  1.0
  O  O382  1  0.78366667  0.78223333  0.37703333  1.0
  O  O383  1  0.21776667  0.00143333  0.37703333  1.0
  O  O384  1  0.07083333  0.14166667  0.65916667  1.0
  O  O385  1  0.07083333  0.92916667  0.65916667  1.0
  O  O386  1  0.85833333  0.92916667  0.65916667  1.0
  O  O387  1  0.92916667  0.85833333  0.34083333  1.0
  O  O388  1  0.92916667  0.07083333  0.34083333  1.0
  O  O389  1  0.14166667  0.07083333  0.34083333  1.0
  O  O390  1  0.03153333  0.25716667  0.68526667  1.0
  O  O391  1  0.22563333  0.96846667  0.68526667  1.0
  O  O392  1  0.74283333  0.77436667  0.68526667  1.0
  O  O393  1  0.03153333  0.77436667  0.68526667  1.0
  O  O394  1  0.22563333  0.25716667  0.68526667  1.0
  O  O395  1  0.74283333  0.96846667  0.68526667  1.0
  O  O396  1  0.96846667  0.74283333  0.31473333  1.0
  O  O397  1  0.77436667  0.03153333  0.31473333  1.0
  O  O398  1  0.25716667  0.22563333  0.31473333  1.0
  O  O399  1  0.96846667  0.22563333  0.31473333  1.0
  O  O400  1  0.77436667  0.74283333  0.31473333  1.0
  O  O401  1  0.25716667  0.03153333  0.31473333  1.0
  O  O402  1  0.95466667  0.61843333  0.39463333  1.0
  O  O403  1  0.66376667  0.04533333  0.39463333  1.0
  O  O404  1  0.38156667  0.33623333  0.39463333  1.0
  O  O405  1  0.95466667  0.33623333  0.39463333  1.0
  O  O406  1  0.66376667  0.61843333  0.39463333  1.0
  O  O407  1  0.38156667  0.04533333  0.39463333  1.0
  O  O408  1  0.04533333  0.38156667  0.60536667  1.0
  O  O409  1  0.33623333  0.95466667  0.60536667  1.0
  O  O410  1  0.61843333  0.66376667  0.60536667  1.0
  O  O411  1  0.04533333  0.66376667  0.60536667  1.0
  O  O412  1  0.33623333  0.38156667  0.60536667  1.0
  O  O413  1  0.61843333  0.95466667  0.60536667  1.0
  O  O414  1  0.57623333  0.90956667  0.66666667  1.0
  O  O415  1  0.33333333  0.42376667  0.66666667  1.0
  O  O416  1  0.42376667  0.33333333  0.33333333  1.0
  O  O417  1  0.90956667  0.33333333  0.33333333  1.0
  O  O418  1  0.33333333  0.90956667  0.66666667  1.0
  O  O419  1  0.09043333  0.42376667  0.66666667  1.0
  O  O420  1  0.61513333  0.80756667  0.70306667  1.0
  O  O421  1  0.19243333  0.38486667  0.70306667  1.0
  O  O422  1  0.19243333  0.80756667  0.70306667  1.0
  O  O423  1  0.38486667  0.19243333  0.29693333  1.0
  O  O424  1  0.80756667  0.61513333  0.29693333  1.0
  O  O425  1  0.80756667  0.19243333  0.29693333  1.0
  O  O426  1  0.83596667  0.16403333  0.39883333  1.0
  O  O427  1  0.32806667  0.16403333  0.39883333  1.0
  O  O428  1  0.83596667  0.67193333  0.39883333  1.0
  O  O429  1  0.16403333  0.83596667  0.60116667  1.0
  O  O430  1  0.67193333  0.83596667  0.60116667  1.0
  O  O431  1  0.16403333  0.32806667  0.60116667  1.0
