# generated using pymatgen
data_SiO2
_symmetry_space_group_name_H-M   'P 1'
_cell_length_a   20.33199999
_cell_length_b   12.08500000
_cell_length_c   10.27500001
_cell_angle_alpha   90.00000000
_cell_angle_beta   105.25400118
_cell_angle_gamma   90.00000000
_symmetry_Int_Tables_number   1
_chemical_formula_structural   SiO2
_chemical_formula_sum   'Si40 O80'
_cell_volume   2435.74548175
_cell_formula_units_Z   40
loop_
 _symmetry_equiv_pos_site_id
 _symmetry_equiv_pos_as_xyz
  1  'x, y, z'
loop_
 _atom_site_type_symbol
 _atom_site_label
 _atom_site_symmetry_multiplicity
 _atom_site_fract_x
 _atom_site_fract_y
 _atom_site_fract_z
 _atom_site_occupancy
  Si  Si0  1  0.04890000  0.00570000  0.65060000  1.0
  Si  Si1  1  0.95110000  0.99430000  0.34940000  1.0
  Si  Si2  1  0.95110000  0.00570000  0.84940000  1.0
  Si  Si3  1  0.04890000  0.99430000  0.15060000  1.0
  Si  Si4  1  0.65160000  0.66190000  0.30320000  1.0
  Si  Si5  1  0.34840000  0.33810000  0.69680000  1.0
  Si  Si6  1  0.34840000  0.66190000  0.19680000  1.0
  Si  Si7  1  0.65160000  0.33810000  0.80320000  1.0
  Si  Si8  1  0.65220000  0.66810000  0.60020000  1.0
  Si  Si9  1  0.34780000  0.33190000  0.39980000  1.0
  Si  Si10  1  0.34780000  0.66810000  0.89980000  1.0
  Si  Si11  1  0.65220000  0.33190000  0.10020000  1.0
  Si  Si12  1  0.69460000  0.90550000  0.31890000  1.0
  Si  Si13  1  0.30540000  0.09450000  0.68110000  1.0
  Si  Si14  1  0.30540000  0.90550000  0.18110000  1.0
  Si  Si15  1  0.69460000  0.09450000  0.81890000  1.0
  Si  Si16  1  0.69530000  0.91170000  0.61570000  1.0
  Si  Si17  1  0.30470000  0.08830000  0.38430000  1.0
  Si  Si18  1  0.30470000  0.91170000  0.88430000  1.0
  Si  Si19  1  0.69530000  0.08830000  0.11570000  1.0
  Si  Si20  1  0.54890000  0.50570000  0.65060000  1.0
  Si  Si21  1  0.45110000  0.49430000  0.34940000  1.0
  Si  Si22  1  0.45110000  0.50570000  0.84940000  1.0
  Si  Si23  1  0.54890000  0.49430000  0.15060000  1.0
  Si  Si24  1  0.15160000  0.16190000  0.30320000  1.0
  Si  Si25  1  0.84840000  0.83810000  0.69680000  1.0
  Si  Si26  1  0.84840000  0.16190000  0.19680000  1.0
  Si  Si27  1  0.15160000  0.83810000  0.80320000  1.0
  Si  Si28  1  0.15220000  0.16810000  0.60020000  1.0
  Si  Si29  1  0.84780000  0.83190000  0.39980000  1.0
  Si  Si30  1  0.84780000  0.16810000  0.89980000  1.0
  Si  Si31  1  0.15220000  0.83190000  0.10020000  1.0
  Si  Si32  1  0.19460000  0.40550000  0.31890000  1.0
  Si  Si33  1  0.80540000  0.59450000  0.68110000  1.0
  Si  Si34  1  0.80540000  0.40550000  0.18110000  1.0
  Si  Si35  1  0.19460000  0.59450000  0.81890000  1.0
  Si  Si36  1  0.19530000  0.41170000  0.61570000  1.0
  Si  Si37  1  0.80470000  0.58830000  0.38430000  1.0
  Si  Si38  1  0.80470000  0.41170000  0.88430000  1.0
  Si  Si39  1  0.19530000  0.58830000  0.11570000  1.0
  O  O40  1  0.59550000  0.60380000  0.18220000  1.0
  O  O41  1  0.40450000  0.39620000  0.81780000  1.0
  O  O42  1  0.40450000  0.60380000  0.31780000  1.0
  O  O43  1  0.59550000  0.39620000  0.68220000  1.0
  O  O44  1  0.59690000  0.61360000  0.66790000  1.0
  O  O45  1  0.40310000  0.38640000  0.33210000  1.0
  O  O46  1  0.40310000  0.61360000  0.83210000  1.0
  O  O47  1  0.59690000  0.38640000  0.16790000  1.0
  O  O48  1  0.63320000  0.63480000  0.44300000  1.0
  O  O49  1  0.36680000  0.36520000  0.55700000  1.0
  O  O50  1  0.36680000  0.63480000  0.05700000  1.0
  O  O51  1  0.63320000  0.36520000  0.94300000  1.0
  O  O52  1  0.65050000  0.79380000  0.28110000  1.0
  O  O53  1  0.34950000  0.20620000  0.71890000  1.0
  O  O54  1  0.34950000  0.79380000  0.21890000  1.0
  O  O55  1  0.65050000  0.20620000  0.78110000  1.0
  O  O56  1  0.65110000  0.80080000  0.61390000  1.0
  O  O57  1  0.34890000  0.19920000  0.38610000  1.0
  O  O58  1  0.34890000  0.80080000  0.88610000  1.0
  O  O59  1  0.65110000  0.19920000  0.11390000  1.0
  O  O60  1  0.66790000  0.99510000  0.20070000  1.0
  O  O61  1  0.33210000  0.00490000  0.79930000  1.0
  O  O62  1  0.33210000  0.99510000  0.29930000  1.0
  O  O63  1  0.66790000  0.00490000  0.70070000  1.0
  O  O64  1  0.68870000  0.95070000  0.46280000  1.0
  O  O65  1  0.31130000  0.04930000  0.53720000  1.0
  O  O66  1  0.31130000  0.95070000  0.03720000  1.0
  O  O67  1  0.68870000  0.04930000  0.96280000  1.0
  O  O68  1  0.22620000  0.11390000  0.30940000  1.0
  O  O69  1  0.77380000  0.88610000  0.69060000  1.0
  O  O70  1  0.77380000  0.11390000  0.19060000  1.0
  O  O71  1  0.22620000  0.88610000  0.80940000  1.0
  O  O72  1  0.22690000  0.12180000  0.67350000  1.0
  O  O73  1  0.77310000  0.87820000  0.32650000  1.0
  O  O74  1  0.77310000  0.12180000  0.82650000  1.0
  O  O75  1  0.22690000  0.87820000  0.17350000  1.0
  O  O76  1  0.00000000  0.00000000  0.50000000  1.0
  O  O77  1  0.00000000  0.00000000  0.00000000  1.0
  O  O78  1  0.50000000  0.51430000  0.75000000  1.0
  O  O79  1  0.50000000  0.48570000  0.25000000  1.0
  O  O80  1  0.09550000  0.10380000  0.18220000  1.0
  O  O81  1  0.90450000  0.89620000  0.81780000  1.0
  O  O82  1  0.90450000  0.10380000  0.31780000  1.0
  O  O83  1  0.09550000  0.89620000  0.68220000  1.0
  O  O84  1  0.09690000  0.11360000  0.66790000  1.0
  O  O85  1  0.90310000  0.88640000  0.33210000  1.0
  O  O86  1  0.90310000  0.11360000  0.83210000  1.0
  O  O87  1  0.09690000  0.88640000  0.16790000  1.0
  O  O88  1  0.13320000  0.13480000  0.44300000  1.0
  O  O89  1  0.86680000  0.86520000  0.55700000  1.0
  O  O90  1  0.86680000  0.13480000  0.05700000  1.0
  O  O91  1  0.13320000  0.86520000  0.94300000  1.0
  O  O92  1  0.15050000  0.29380000  0.28110000  1.0
  O  O93  1  0.84950000  0.70620000  0.71890000  1.0
  O  O94  1  0.84950000  0.29380000  0.21890000  1.0
  O  O95  1  0.15050000  0.70620000  0.78110000  1.0
  O  O96  1  0.15110000  0.30080000  0.61390000  1.0
  O  O97  1  0.84890000  0.69920000  0.38610000  1.0
  O  O98  1  0.84890000  0.30080000  0.88610000  1.0
  O  O99  1  0.15110000  0.69920000  0.11390000  1.0
  O  O100  1  0.16790000  0.49510000  0.20070000  1.0
  O  O101  1  0.83210000  0.50490000  0.79930000  1.0
  O  O102  1  0.83210000  0.49510000  0.29930000  1.0
  O  O103  1  0.16790000  0.50490000  0.70070000  1.0
  O  O104  1  0.18870000  0.45070000  0.46280000  1.0
  O  O105  1  0.81130000  0.54930000  0.53720000  1.0
  O  O106  1  0.81130000  0.45070000  0.03720000  1.0
  O  O107  1  0.18870000  0.54930000  0.96280000  1.0
  O  O108  1  0.72620000  0.61390000  0.30940000  1.0
  O  O109  1  0.27380000  0.38610000  0.69060000  1.0
  O  O110  1  0.27380000  0.61390000  0.19060000  1.0
  O  O111  1  0.72620000  0.38610000  0.80940000  1.0
  O  O112  1  0.72690000  0.62180000  0.67350000  1.0
  O  O113  1  0.27310000  0.37820000  0.32650000  1.0
  O  O114  1  0.27310000  0.62180000  0.82650000  1.0
  O  O115  1  0.72690000  0.37820000  0.17350000  1.0
  O  O116  1  0.50000000  0.50000000  0.50000000  1.0
  O  O117  1  0.50000000  0.50000000  0.00000000  1.0
  O  O118  1  0.00000000  0.01430000  0.75000000  1.0
  O  O119  1  0.00000000  0.98570000  0.25000000  1.0
