# generated using pymatgen
data_SiO2
_symmetry_space_group_name_H-M   C2/c
_cell_length_a   20.33200000
_cell_length_b   12.08500000
_cell_length_c   10.27500001
_cell_angle_alpha   90.00000000
_cell_angle_beta   105.25400118
_cell_angle_gamma   90.00000000
_symmetry_Int_Tables_number   15
_chemical_formula_structural   SiO2
_chemical_formula_sum   'Si40 O80'
_cell_volume   2435.74548258
_cell_formula_units_Z   40
loop_
 _symmetry_equiv_pos_site_id
 _symmetry_equiv_pos_as_xyz
  1  'x, y, z'
  2  '-x, -y, -z'
  3  '-x, y, -z+1/2'
  4  'x, -y, z+1/2'
  5  'x+1/2, y+1/2, z'
  6  '-x+1/2, -y+1/2, -z'
  7  '-x+1/2, y+1/2, -z+1/2'
  8  'x+1/2, -y+1/2, z+1/2'
loop_
 _atom_site_type_symbol
 _atom_site_label
 _atom_site_symmetry_multiplicity
 _atom_site_fract_x
 _atom_site_fract_y
 _atom_site_fract_z
 _atom_site_occupancy
  Si  Si0  8  0.04890000  0.00570000  0.15060000  1
  Si  Si1  8  0.15160000  0.16190000  0.80320000  1
  Si  Si2  8  0.15220000  0.16810000  0.10020000  1
  Si  Si3  8  0.19460000  0.40550000  0.81890000  1
  Si  Si4  8  0.19530000  0.41170000  0.11570000  1
  O  O5  8  0.09550000  0.10380000  0.68220000  1
  O  O6  8  0.09690000  0.11360000  0.16790000  1
  O  O7  8  0.13320000  0.13480000  0.94300000  1
  O  O8  8  0.15050000  0.29380000  0.78110000  1
  O  O9  8  0.15110000  0.30080000  0.11390000  1
  O  O10  8  0.16790000  0.49510000  0.70070000  1
  O  O11  8  0.18870000  0.45070000  0.96280000  1
  O  O12  8  0.22620000  0.11390000  0.80940000  1
  O  O13  8  0.22690000  0.12180000  0.17350000  1
  O  O14  4  0.00000000  0.00000000  0.00000000  1
  O  O15  4  0.00000000  0.01430000  0.25000000  1
