# generated using pymatgen
data_SiO2
_symmetry_space_group_name_H-M   'P 1'
_cell_length_a   11.88700000
_cell_length_b   11.88700000
_cell_length_c   29.91500000
_cell_angle_alpha   90.00000000
_cell_angle_beta   90.00000000
_cell_angle_gamma   120.00000000
_symmetry_Int_Tables_number   1
_chemical_formula_structural   SiO2
_chemical_formula_sum   'Si60 O120'
_cell_volume   3660.70021113
_cell_formula_units_Z   60
loop_
 _symmetry_equiv_pos_site_id
 _symmetry_equiv_pos_as_xyz
  1  'x, y, z'
loop_
 _atom_site_type_symbol
 _atom_site_label
 _atom_site_symmetry_multiplicity
 _atom_site_fract_x
 _atom_site_fract_y
 _atom_site_fract_z
 _atom_site_occupancy
  Si  Si0  1  0.69170000  0.37480000  0.03380000  1.0
  Si  Si1  1  0.62520000  0.31690000  0.36713333  1.0
  Si  Si2  1  0.68310000  0.30830000  0.70046667  1.0
  Si  Si3  1  0.30830000  0.62520000  0.53380000  1.0
  Si  Si4  1  0.37480000  0.68310000  0.86713333  1.0
  Si  Si5  1  0.31690000  0.69170000  0.20046667  1.0
  Si  Si6  1  0.37480000  0.69170000  0.29953333  1.0
  Si  Si7  1  0.31690000  0.62520000  0.96620000  1.0
  Si  Si8  1  0.30830000  0.68310000  0.63286667  1.0
  Si  Si9  1  0.62520000  0.30830000  0.79953333  1.0
  Si  Si10  1  0.68310000  0.37480000  0.46620000  1.0
  Si  Si11  1  0.69170000  0.31690000  0.13286667  1.0
  Si  Si12  1  0.53180000  0.41380000  0.96670000  1.0
  Si  Si13  1  0.58620000  0.11800000  0.30003333  1.0
  Si  Si14  1  0.88200000  0.46820000  0.63336667  1.0
  Si  Si15  1  0.46820000  0.58620000  0.46670000  1.0
  Si  Si16  1  0.41380000  0.88200000  0.80003333  1.0
  Si  Si17  1  0.11800000  0.53180000  0.13336667  1.0
  Si  Si18  1  0.41380000  0.53180000  0.36663333  1.0
  Si  Si19  1  0.11800000  0.58620000  0.03330000  1.0
  Si  Si20  1  0.46820000  0.88200000  0.69996667  1.0
  Si  Si21  1  0.58620000  0.46820000  0.86663333  1.0
  Si  Si22  1  0.88200000  0.41380000  0.53330000  1.0
  Si  Si23  1  0.53180000  0.11800000  0.19996667  1.0
  Si  Si24  1  0.29970000  0.39420000  0.85080000  1.0
  Si  Si25  1  0.60580000  0.90550000  0.18413333  1.0
  Si  Si26  1  0.09450000  0.70030000  0.51746667  1.0
  Si  Si27  1  0.70030000  0.60580000  0.35080000  1.0
  Si  Si28  1  0.39420000  0.09450000  0.68413333  1.0
  Si  Si29  1  0.90550000  0.29970000  0.01746667  1.0
  Si  Si30  1  0.39420000  0.29970000  0.48253333  1.0
  Si  Si31  1  0.90550000  0.60580000  0.14920000  1.0
  Si  Si32  1  0.70030000  0.09450000  0.81586667  1.0
  Si  Si33  1  0.60580000  0.70030000  0.98253333  1.0
  Si  Si34  1  0.09450000  0.39420000  0.64920000  1.0
  Si  Si35  1  0.29970000  0.90550000  0.31586667  1.0
  Si  Si36  1  0.24320000  0.33800000  0.95060000  1.0
  Si  Si37  1  0.66200000  0.90520000  0.28393333  1.0
  Si  Si38  1  0.09480000  0.75680000  0.61726667  1.0
  Si  Si39  1  0.75680000  0.66200000  0.45060000  1.0
  Si  Si40  1  0.33800000  0.09480000  0.78393333  1.0
  Si  Si41  1  0.90520000  0.24320000  0.11726667  1.0
  Si  Si42  1  0.33800000  0.24320000  0.38273333  1.0
  Si  Si43  1  0.90520000  0.66200000  0.04940000  1.0
  Si  Si44  1  0.75680000  0.09480000  0.71606667  1.0
  Si  Si45  1  0.66200000  0.75680000  0.88273333  1.0
  Si  Si46  1  0.09480000  0.33800000  0.54940000  1.0
  Si  Si47  1  0.24320000  0.90520000  0.21606667  1.0
  Si  Si48  1  0.96700000  0.12210000  0.96660000  1.0
  Si  Si49  1  0.87790000  0.84490000  0.29993333  1.0
  Si  Si50  1  0.15510000  0.03300000  0.63326667  1.0
  Si  Si51  1  0.03300000  0.87790000  0.46660000  1.0
  Si  Si52  1  0.12210000  0.15510000  0.79993333  1.0
  Si  Si53  1  0.84490000  0.96700000  0.13326667  1.0
  Si  Si54  1  0.12210000  0.96700000  0.36673333  1.0
  Si  Si55  1  0.84490000  0.87790000  0.03340000  1.0
  Si  Si56  1  0.03300000  0.15510000  0.70006667  1.0
  Si  Si57  1  0.87790000  0.03300000  0.86673333  1.0
  Si  Si58  1  0.15510000  0.12210000  0.53340000  1.0
  Si  Si59  1  0.96700000  0.84490000  0.20006667  1.0
  O  O60  1  0.91280000  0.00000000  0.00000000  1.0
  O  O61  1  0.00000000  0.91280000  0.33333333  1.0
  O  O62  1  0.08720000  0.08720000  0.66666667  1.0
  O  O63  1  0.08720000  0.00000000  0.50000000  1.0
  O  O64  1  0.00000000  0.08720000  0.83333333  1.0
  O  O65  1  0.91280000  0.91280000  0.16666667  1.0
  O  O66  1  0.33280000  0.57260000  0.33370000  1.0
  O  O67  1  0.42740000  0.76020000  0.66703333  1.0
  O  O68  1  0.23980000  0.66720000  0.00036667  1.0
  O  O69  1  0.66720000  0.42740000  0.83370000  1.0
  O  O70  1  0.57260000  0.23980000  0.16703333  1.0
  O  O71  1  0.76020000  0.33280000  0.50036667  1.0
  O  O72  1  0.57260000  0.33280000  0.99963333  1.0
  O  O73  1  0.76020000  0.42740000  0.66630000  1.0
  O  O74  1  0.66720000  0.23980000  0.33296667  1.0
  O  O75  1  0.42740000  0.66720000  0.49963333  1.0
  O  O76  1  0.23980000  0.57260000  0.16630000  1.0
  O  O77  1  0.33280000  0.76020000  0.83296667  1.0
  O  O78  1  0.12160000  0.21290000  0.97280000  1.0
  O  O79  1  0.78710000  0.90870000  0.30613333  1.0
  O  O80  1  0.09130000  0.87840000  0.63946667  1.0
  O  O81  1  0.87840000  0.78710000  0.47280000  1.0
  O  O82  1  0.21290000  0.09130000  0.80613333  1.0
  O  O83  1  0.90870000  0.12160000  0.13946667  1.0
  O  O84  1  0.21290000  0.12160000  0.36053333  1.0
  O  O85  1  0.90870000  0.78710000  0.02720000  1.0
  O  O86  1  0.87840000  0.09130000  0.69386667  1.0
  O  O87  1  0.78710000  0.87840000  0.86053333  1.0
  O  O88  1  0.09130000  0.21290000  0.52720000  1.0
  O  O89  1  0.12160000  0.90870000  0.19386667  1.0
  O  O90  1  0.93440000  0.06560000  0.91666667  1.0
  O  O91  1  0.93440000  0.86880000  0.25000000  1.0
  O  O92  1  0.13120000  0.06560000  0.58333333  1.0
  O  O93  1  0.06560000  0.93440000  0.41666667  1.0
  O  O94  1  0.06560000  0.13120000  0.75000000  1.0
  O  O95  1  0.86880000  0.93440000  0.08333333  1.0
  O  O96  1  0.89980000  0.20810000  0.97680000  1.0
  O  O97  1  0.79190000  0.69170000  0.31013333  1.0
  O  O98  1  0.30830000  0.10020000  0.64346667  1.0
  O  O99  1  0.10020000  0.79190000  0.47680000  1.0
  O  O100  1  0.20810000  0.30830000  0.81013333  1.0
  O  O101  1  0.69170000  0.89980000  0.14346667  1.0
  O  O102  1  0.20810000  0.89980000  0.35653333  1.0
  O  O103  1  0.69170000  0.79190000  0.02320000  1.0
  O  O104  1  0.10020000  0.30830000  0.68986667  1.0
  O  O105  1  0.79190000  0.10020000  0.85653333  1.0
  O  O106  1  0.30830000  0.20810000  0.52320000  1.0
  O  O107  1  0.89980000  0.69170000  0.18986667  1.0
  O  O108  1  0.64020000  0.32010000  0.08333333  1.0
  O  O109  1  0.67990000  0.32010000  0.41666667  1.0
  O  O110  1  0.67990000  0.35980000  0.75000000  1.0
  O  O111  1  0.35980000  0.67990000  0.58333333  1.0
  O  O112  1  0.32010000  0.67990000  0.91666667  1.0
  O  O113  1  0.32010000  0.64020000  0.25000000  1.0
  O  O114  1  0.37580000  0.34460000  0.96640000  1.0
  O  O115  1  0.65540000  0.03120000  0.29973333  1.0
  O  O116  1  0.96880000  0.62420000  0.63306667  1.0
  O  O117  1  0.62420000  0.65540000  0.46640000  1.0
  O  O118  1  0.34460000  0.96880000  0.79973333  1.0
  O  O119  1  0.03120000  0.37580000  0.13306667  1.0
  O  O120  1  0.34460000  0.37580000  0.36693333  1.0
  O  O121  1  0.03120000  0.65540000  0.03360000  1.0
  O  O122  1  0.62420000  0.96880000  0.70026667  1.0
  O  O123  1  0.65540000  0.62420000  0.86693333  1.0
  O  O124  1  0.96880000  0.34460000  0.53360000  1.0
  O  O125  1  0.37580000  0.03120000  0.20026667  1.0
  O  O126  1  0.77970000  0.31690000  0.01540000  1.0
  O  O127  1  0.68310000  0.46280000  0.34873333  1.0
  O  O128  1  0.53720000  0.22030000  0.68206667  1.0
  O  O129  1  0.22030000  0.68310000  0.51540000  1.0
  O  O130  1  0.31690000  0.53720000  0.84873333  1.0
  O  O131  1  0.46280000  0.77970000  0.18206667  1.0
  O  O132  1  0.31690000  0.77970000  0.31793333  1.0
  O  O133  1  0.46280000  0.68310000  0.98460000  1.0
  O  O134  1  0.22030000  0.53720000  0.65126667  1.0
  O  O135  1  0.68310000  0.22030000  0.81793333  1.0
  O  O136  1  0.53720000  0.31690000  0.48460000  1.0
  O  O137  1  0.77970000  0.46280000  0.15126667  1.0
  O  O138  1  0.77520000  0.53100000  0.03480000  1.0
  O  O139  1  0.46900000  0.24420000  0.36813333  1.0
  O  O140  1  0.75580000  0.22480000  0.70146667  1.0
  O  O141  1  0.22480000  0.46900000  0.53480000  1.0
  O  O142  1  0.53100000  0.75580000  0.86813333  1.0
  O  O143  1  0.24420000  0.77520000  0.20146667  1.0
  O  O144  1  0.53100000  0.77520000  0.29853333  1.0
  O  O145  1  0.24420000  0.46900000  0.96520000  1.0
  O  O146  1  0.22480000  0.75580000  0.63186667  1.0
  O  O147  1  0.46900000  0.22480000  0.79853333  1.0
  O  O148  1  0.75580000  0.53100000  0.46520000  1.0
  O  O149  1  0.77520000  0.24420000  0.13186667  1.0
  O  O150  1  0.23110000  0.32460000  0.89710000  1.0
  O  O151  1  0.67540000  0.90650000  0.23043333  1.0
  O  O152  1  0.09350000  0.76890000  0.56376667  1.0
  O  O153  1  0.76890000  0.67540000  0.39710000  1.0
  O  O154  1  0.32460000  0.09350000  0.73043333  1.0
  O  O155  1  0.90650000  0.23110000  0.06376667  1.0
  O  O156  1  0.32460000  0.23110000  0.43623333  1.0
  O  O157  1  0.90650000  0.67540000  0.10290000  1.0
  O  O158  1  0.76890000  0.09350000  0.76956667  1.0
  O  O159  1  0.67540000  0.76890000  0.93623333  1.0
  O  O160  1  0.09350000  0.32460000  0.60290000  1.0
  O  O161  1  0.23110000  0.90650000  0.26956667  1.0
  O  O162  1  0.59370000  0.55940000  0.98580000  1.0
  O  O163  1  0.44060000  0.03430000  0.31913333  1.0
  O  O164  1  0.96570000  0.40630000  0.65246667  1.0
  O  O165  1  0.40630000  0.44060000  0.48580000  1.0
  O  O166  1  0.55940000  0.96570000  0.81913333  1.0
  O  O167  1  0.03430000  0.59370000  0.15246667  1.0
  O  O168  1  0.55940000  0.59370000  0.34753333  1.0
  O  O169  1  0.03430000  0.44060000  0.01420000  1.0
  O  O170  1  0.40630000  0.96570000  0.68086667  1.0
  O  O171  1  0.44060000  0.40630000  0.84753333  1.0
  O  O172  1  0.96570000  0.55940000  0.51420000  1.0
  O  O173  1  0.59370000  0.03430000  0.18086667  1.0
  O  O174  1  0.58370000  0.41630000  0.91666667  1.0
  O  O175  1  0.58370000  0.16740000  0.25000000  1.0
  O  O176  1  0.83260000  0.41630000  0.58333333  1.0
  O  O177  1  0.41630000  0.58370000  0.41666667  1.0
  O  O178  1  0.41630000  0.83260000  0.75000000  1.0
  O  O179  1  0.16740000  0.58370000  0.08333333  1.0
