# generated using pymatgen
data_Si23O48
_symmetry_space_group_name_H-M   'P 1'
_cell_length_a   20.40800000
_cell_length_b   13.30400000
_cell_length_c   20.16600000
_cell_angle_alpha   90.00000000
_cell_angle_beta   102.33300000
_cell_angle_gamma   90.00000000
_symmetry_Int_Tables_number   1
_chemical_formula_structural   Si23O48
_chemical_formula_sum   'Si92 O192'
_cell_volume   5348.87751187
_cell_formula_units_Z   4
loop_
 _symmetry_equiv_pos_site_id
 _symmetry_equiv_pos_as_xyz
  1  'x, y, z'
loop_
 _atom_site_type_symbol
 _atom_site_label
 _atom_site_symmetry_multiplicity
 _atom_site_fract_x
 _atom_site_fract_y
 _atom_site_fract_z
 _atom_site_occupancy
  Si  Si0  1  0.58830000  0.93280000  0.03410000  1.0
  Si  Si1  1  0.58830000  0.06720000  0.53410000  1.0
  Si  Si2  1  0.68830000  0.77960000  0.11620000  1.0
  Si  Si3  1  0.68830000  0.22040000  0.61620000  1.0
  Si  Si4  1  0.80790000  0.91580000  0.09000000  1.0
  Si  Si5  1  0.80790000  0.08420000  0.59000000  1.0
  Si  Si6  1  0.43110000  0.28980000  0.15090000  1.0
  Si  Si7  1  0.43110000  0.71020000  0.65090000  1.0
  Si  Si8  1  0.38570000  0.07920000  0.10530000  1.0
  Si  Si9  1  0.38570000  0.92080000  0.60530000  1.0
  Si  Si10  1  0.23060000  0.07320000  0.07310000  1.0
  Si  Si11  1  0.23060000  0.92680000  0.57310000  1.0
  Si  Si12  1  0.58230000  0.29220000  0.18600000  1.0
  Si  Si13  1  0.58230000  0.70780000  0.68600000  1.0
  Si  Si14  1  0.20420000  0.91370000  0.17980000  1.0
  Si  Si15  1  0.20420000  0.08630000  0.67980000  1.0
  Si  Si16  1  0.32620000  0.77840000  0.24740000  1.0
  Si  Si17  1  0.32620000  0.22160000  0.74740000  1.0
  Si  Si18  1  0.78240000  0.06820000  0.20050000  1.0
  Si  Si19  1  0.78240000  0.93180000  0.70050000  1.0
  Si  Si20  1  0.62950000  0.07950000  0.15640000  1.0
  Si  Si21  1  0.62950000  0.92050000  0.65640000  1.0
  Si  Si22  1  0.42960000  0.94460000  0.23840000  1.0
  Si  Si23  1  0.42960000  0.05540000  0.73840000  1.0
  Si  Si24  1  0.32180000  0.78270000  0.40560000  1.0
  Si  Si25  1  0.32180000  0.21730000  0.90560000  1.0
  Si  Si26  1  0.20280000  0.92120000  0.41700000  1.0
  Si  Si27  1  0.20280000  0.07880000  0.91700000  1.0
  Si  Si28  1  0.58330000  0.30380000  0.33820000  1.0
  Si  Si29  1  0.58330000  0.69620000  0.83820000  1.0
  Si  Si30  1  0.62830000  0.09070000  0.39470000  1.0
  Si  Si31  1  0.62830000  0.90930000  0.89470000  1.0
  Si  Si32  1  0.78350000  0.07110000  0.43520000  1.0
  Si  Si33  1  0.78350000  0.92890000  0.93520000  1.0
  Si  Si34  1  0.42820000  0.29570000  0.30260000  1.0
  Si  Si35  1  0.42820000  0.70430000  0.80260000  1.0
  Si  Si36  1  0.80670000  0.92060000  0.32640000  1.0
  Si  Si37  1  0.80670000  0.07940000  0.82640000  1.0
  Si  Si38  1  0.68850000  0.77960000  0.27520000  1.0
  Si  Si39  1  0.68850000  0.22040000  0.77520000  1.0
  Si  Si40  1  0.23040000  0.06300000  0.30420000  1.0
  Si  Si41  1  0.23040000  0.93700000  0.80420000  1.0
  Si  Si42  1  0.38390000  0.08450000  0.34240000  1.0
  Si  Si43  1  0.38390000  0.91550000  0.84240000  1.0
  Si  Si44  1  0.58570000  0.94450000  0.26950000  1.0
  Si  Si45  1  0.58570000  0.05550000  0.76950000  1.0
  Si  Si46  1  0.08830000  0.43280000  0.03410000  1.0
  Si  Si47  1  0.08830000  0.56720000  0.53410000  1.0
  Si  Si48  1  0.18830000  0.27960000  0.11620000  1.0
  Si  Si49  1  0.18830000  0.72040000  0.61620000  1.0
  Si  Si50  1  0.30790000  0.41580000  0.09000000  1.0
  Si  Si51  1  0.30790000  0.58420000  0.59000000  1.0
  Si  Si52  1  0.93110000  0.78980000  0.15090000  1.0
  Si  Si53  1  0.93110000  0.21020000  0.65090000  1.0
  Si  Si54  1  0.88570000  0.57920000  0.10530000  1.0
  Si  Si55  1  0.88570000  0.42080000  0.60530000  1.0
  Si  Si56  1  0.73060000  0.57320000  0.07310000  1.0
  Si  Si57  1  0.73060000  0.42680000  0.57310000  1.0
  Si  Si58  1  0.08230000  0.79220000  0.18600000  1.0
  Si  Si59  1  0.08230000  0.20780000  0.68600000  1.0
  Si  Si60  1  0.70420000  0.41370000  0.17980000  1.0
  Si  Si61  1  0.70420000  0.58630000  0.67980000  1.0
  Si  Si62  1  0.82620000  0.27840000  0.24740000  1.0
  Si  Si63  1  0.82620000  0.72160000  0.74740000  1.0
  Si  Si64  1  0.28240000  0.56820000  0.20050000  1.0
  Si  Si65  1  0.28240000  0.43180000  0.70050000  1.0
  Si  Si66  1  0.12950000  0.57950000  0.15640000  1.0
  Si  Si67  1  0.12950000  0.42050000  0.65640000  1.0
  Si  Si68  1  0.92960000  0.44460000  0.23840000  1.0
  Si  Si69  1  0.92960000  0.55540000  0.73840000  1.0
  Si  Si70  1  0.82180000  0.28270000  0.40560000  1.0
  Si  Si71  1  0.82180000  0.71730000  0.90560000  1.0
  Si  Si72  1  0.70280000  0.42120000  0.41700000  1.0
  Si  Si73  1  0.70280000  0.57880000  0.91700000  1.0
  Si  Si74  1  0.08330000  0.80380000  0.33820000  1.0
  Si  Si75  1  0.08330000  0.19620000  0.83820000  1.0
  Si  Si76  1  0.12830000  0.59070000  0.39470000  1.0
  Si  Si77  1  0.12830000  0.40930000  0.89470000  1.0
  Si  Si78  1  0.28350000  0.57110000  0.43520000  1.0
  Si  Si79  1  0.28350000  0.42890000  0.93520000  1.0
  Si  Si80  1  0.92820000  0.79570000  0.30260000  1.0
  Si  Si81  1  0.92820000  0.20430000  0.80260000  1.0
  Si  Si82  1  0.30670000  0.42060000  0.32640000  1.0
  Si  Si83  1  0.30670000  0.57940000  0.82640000  1.0
  Si  Si84  1  0.18850000  0.27960000  0.27520000  1.0
  Si  Si85  1  0.18850000  0.72040000  0.77520000  1.0
  Si  Si86  1  0.73040000  0.56300000  0.30420000  1.0
  Si  Si87  1  0.73040000  0.43700000  0.80420000  1.0
  Si  Si88  1  0.88390000  0.58450000  0.34240000  1.0
  Si  Si89  1  0.88390000  0.41550000  0.84240000  1.0
  Si  Si90  1  0.08570000  0.44450000  0.26950000  1.0
  Si  Si91  1  0.08570000  0.55550000  0.76950000  1.0
  O  O92  1  0.62230000  0.83440000  0.07350000  1.0
  O  O93  1  0.62230000  0.16560000  0.57350000  1.0
  O  O94  1  0.60670000  0.02960000  0.08230000  1.0
  O  O95  1  0.60670000  0.97040000  0.58230000  1.0
  O  O96  1  0.50820000  0.91870000  0.01410000  1.0
  O  O97  1  0.50820000  0.08130000  0.51410000  1.0
  O  O98  1  0.61690000  0.95010000  0.96650000  1.0
  O  O99  1  0.61690000  0.04990000  0.46650000  1.0
  O  O100  1  0.75450000  0.83160000  0.10060000  1.0
  O  O101  1  0.75450000  0.16840000  0.60060000  1.0
  O  O102  1  0.18630000  0.16300000  0.09440000  1.0
  O  O103  1  0.18630000  0.83700000  0.59440000  1.0
  O  O104  1  0.68990000  0.78920000  0.19600000  1.0
  O  O105  1  0.68990000  0.21080000  0.69600000  1.0
  O  O106  1  0.38120000  0.36520000  0.10170000  1.0
  O  O107  1  0.38120000  0.63480000  0.60170000  1.0
  O  O108  1  0.78690000  0.95770000  0.01340000  1.0
  O  O109  1  0.78690000  0.04230000  0.51340000  1.0
  O  O110  1  0.80930000  0.00630000  0.14310000  1.0
  O  O111  1  0.80930000  0.99370000  0.64310000  1.0
  O  O112  1  0.42970000  0.18070000  0.11610000  1.0
  O  O113  1  0.42970000  0.81930000  0.61610000  1.0
  O  O114  1  0.50650000  0.33333333  0.16520000  1.0
  O  O115  1  0.50650000  0.66666667  0.66520000  1.0
  O  O116  1  0.40740000  0.27870000  0.22180000  1.0
  O  O117  1  0.40740000  0.72130000  0.72180000  1.0
  O  O118  1  0.30750000  0.10910000  0.08500000  1.0
  O  O119  1  0.30750000  0.89090000  0.58500000  1.0
  O  O120  1  0.39880000  0.01480000  0.17430000  1.0
  O  O121  1  0.39880000  0.98520000  0.67430000  1.0
  O  O122  1  0.40540000  0.01350000  0.04540000  1.0
  O  O123  1  0.40540000  0.98650000  0.54540000  1.0
  O  O124  1  0.20460000  0.04570000  0.99410000  1.0
  O  O125  1  0.20460000  0.95430000  0.49410000  1.0
  O  O126  1  0.22490000  0.97610000  0.11910000  1.0
  O  O127  1  0.22490000  0.02390000  0.61910000  1.0
  O  O128  1  0.63130000  0.36370000  0.15400000  1.0
  O  O129  1  0.63130000  0.63630000  0.65400000  1.0
  O  O130  1  0.60670000  0.29100000  0.26740000  1.0
  O  O131  1  0.60670000  0.70900000  0.76740000  1.0
  O  O132  1  0.58530000  0.17910000  0.15850000  1.0
  O  O133  1  0.58530000  0.82090000  0.65850000  1.0
  O  O134  1  0.25810000  0.82530000  0.20310000  1.0
  O  O135  1  0.25810000  0.17470000  0.70310000  1.0
  O  O136  1  0.20210000  0.98580000  0.24340000  1.0
  O  O137  1  0.20210000  0.01420000  0.74340000  1.0
  O  O138  1  0.83080000  0.16230000  0.22620000  1.0
  O  O139  1  0.83080000  0.83770000  0.72620000  1.0
  O  O140  1  0.38950000  0.83970000  0.23230000  1.0
  O  O141  1  0.38950000  0.16030000  0.73230000  1.0
  O  O142  1  0.32500000  0.78690000  0.32670000  1.0
  O  O143  1  0.32500000  0.21310000  0.82670000  1.0
  O  O144  1  0.70780000  0.10870000  0.16950000  1.0
  O  O145  1  0.70780000  0.89130000  0.66950000  1.0
  O  O146  1  0.78020000  0.99620000  0.26420000  1.0
  O  O147  1  0.78020000  0.00380000  0.76420000  1.0
  O  O148  1  0.61760000  0.00090000  0.21330000  1.0
  O  O149  1  0.61760000  0.99910000  0.71330000  1.0
  O  O150  1  0.42260000  0.00160000  0.30700000  1.0
  O  O151  1  0.42260000  0.99840000  0.80700000  1.0
  O  O152  1  0.50740000  0.92270000  0.23940000  1.0
  O  O153  1  0.50740000  0.07730000  0.73940000  1.0
  O  O154  1  0.38680000  0.05240000  0.41990000  1.0
  O  O155  1  0.38680000  0.94760000  0.91990000  1.0
  O  O156  1  0.38160000  0.84950000  0.44930000  1.0
  O  O157  1  0.38160000  0.15050000  0.94930000  1.0
  O  O158  1  0.25080000  0.82550000  0.41590000  1.0
  O  O159  1  0.25080000  0.17450000  0.91590000  1.0
  O  O160  1  0.82990000  0.16790000  0.43150000  1.0
  O  O161  1  0.82990000  0.83210000  0.93150000  1.0
  O  O162  1  0.12680000  0.89210000  0.38130000  1.0
  O  O163  1  0.12680000  0.10790000  0.88130000  1.0
  O  O164  1  0.22790000  0.01230000  0.37610000  1.0
  O  O165  1  0.22790000  0.98770000  0.87610000  1.0
  O  O166  1  0.59520000  0.20050000  0.38050000  1.0
  O  O167  1  0.59520000  0.79950000  0.88050000  1.0
  O  O168  1  0.50490000  0.33280000  0.32330000  1.0
  O  O169  1  0.50490000  0.66720000  0.82330000  1.0
  O  O170  1  0.70760000  0.09690000  0.39740000  1.0
  O  O171  1  0.70760000  0.90310000  0.89740000  1.0
  O  O172  1  0.59320000  0.01460000  0.33570000  1.0
  O  O173  1  0.59320000  0.98540000  0.83570000  1.0
  O  O174  1  0.80990000  0.97780000  0.39740000  1.0
  O  O175  1  0.80990000  0.02220000  0.89740000  1.0
  O  O176  1  0.88070000  0.88100000  0.32390000  1.0
  O  O177  1  0.88070000  0.11900000  0.82390000  1.0
  O  O178  1  0.41960000  0.19220000  0.34110000  1.0
  O  O179  1  0.41960000  0.80780000  0.84110000  1.0
  O  O180  1  0.75610000  0.82670000  0.32050000  1.0
  O  O181  1  0.75610000  0.17330000  0.82050000  1.0
  O  O182  1  0.18450000  0.16260000  0.29450000  1.0
  O  O183  1  0.18450000  0.83740000  0.79450000  1.0
  O  O184  1  0.62450000  0.83990000  0.28970000  1.0
  O  O185  1  0.62450000  0.16010000  0.78970000  1.0
  O  O186  1  0.30670000  0.09210000  0.30270000  1.0
  O  O187  1  0.30670000  0.90790000  0.80270000  1.0
  O  O188  1  0.12230000  0.33440000  0.07350000  1.0
  O  O189  1  0.12230000  0.66560000  0.57350000  1.0
  O  O190  1  0.10670000  0.52960000  0.08230000  1.0
  O  O191  1  0.10670000  0.47040000  0.58230000  1.0
  O  O192  1  0.00820000  0.41870000  0.01410000  1.0
  O  O193  1  0.00820000  0.58130000  0.51410000  1.0
  O  O194  1  0.11690000  0.45010000  0.96650000  1.0
  O  O195  1  0.11690000  0.54990000  0.46650000  1.0
  O  O196  1  0.25450000  0.33160000  0.10060000  1.0
  O  O197  1  0.25450000  0.66840000  0.60060000  1.0
  O  O198  1  0.68630000  0.66300000  0.09440000  1.0
  O  O199  1  0.68630000  0.33700000  0.59440000  1.0
  O  O200  1  0.18990000  0.28920000  0.19600000  1.0
  O  O201  1  0.18990000  0.71080000  0.69600000  1.0
  O  O202  1  0.88120000  0.86520000  0.10170000  1.0
  O  O203  1  0.88120000  0.13480000  0.60170000  1.0
  O  O204  1  0.28690000  0.45770000  0.01340000  1.0
  O  O205  1  0.28690000  0.54230000  0.51340000  1.0
  O  O206  1  0.30930000  0.50630000  0.14310000  1.0
  O  O207  1  0.30930000  0.49370000  0.64310000  1.0
  O  O208  1  0.92970000  0.68070000  0.11610000  1.0
  O  O209  1  0.92970000  0.31930000  0.61610000  1.0
  O  O210  1  0.00650000  0.83333333  0.16520000  1.0
  O  O211  1  0.00650000  0.16666667  0.66520000  1.0
  O  O212  1  0.90740000  0.77870000  0.22180000  1.0
  O  O213  1  0.90740000  0.22130000  0.72180000  1.0
  O  O214  1  0.80750000  0.60910000  0.08500000  1.0
  O  O215  1  0.80750000  0.39090000  0.58500000  1.0
  O  O216  1  0.89880000  0.51480000  0.17430000  1.0
  O  O217  1  0.89880000  0.48520000  0.67430000  1.0
  O  O218  1  0.90540000  0.51350000  0.04540000  1.0
  O  O219  1  0.90540000  0.48650000  0.54540000  1.0
  O  O220  1  0.70460000  0.54570000  0.99410000  1.0
  O  O221  1  0.70460000  0.45430000  0.49410000  1.0
  O  O222  1  0.72490000  0.47610000  0.11910000  1.0
  O  O223  1  0.72490000  0.52390000  0.61910000  1.0
  O  O224  1  0.13130000  0.86370000  0.15400000  1.0
  O  O225  1  0.13130000  0.13630000  0.65400000  1.0
  O  O226  1  0.10670000  0.79100000  0.26740000  1.0
  O  O227  1  0.10670000  0.20900000  0.76740000  1.0
  O  O228  1  0.08530000  0.67910000  0.15850000  1.0
  O  O229  1  0.08530000  0.32090000  0.65850000  1.0
  O  O230  1  0.75810000  0.32530000  0.20310000  1.0
  O  O231  1  0.75810000  0.67470000  0.70310000  1.0
  O  O232  1  0.70210000  0.48580000  0.24340000  1.0
  O  O233  1  0.70210000  0.51420000  0.74340000  1.0
  O  O234  1  0.33080000  0.66230000  0.22620000  1.0
  O  O235  1  0.33080000  0.33770000  0.72620000  1.0
  O  O236  1  0.88950000  0.33970000  0.23230000  1.0
  O  O237  1  0.88950000  0.66030000  0.73230000  1.0
  O  O238  1  0.82500000  0.28690000  0.32670000  1.0
  O  O239  1  0.82500000  0.71310000  0.82670000  1.0
  O  O240  1  0.20780000  0.60870000  0.16950000  1.0
  O  O241  1  0.20780000  0.39130000  0.66950000  1.0
  O  O242  1  0.28020000  0.49620000  0.26420000  1.0
  O  O243  1  0.28020000  0.50380000  0.76420000  1.0
  O  O244  1  0.11760000  0.50090000  0.21330000  1.0
  O  O245  1  0.11760000  0.49910000  0.71330000  1.0
  O  O246  1  0.92260000  0.50160000  0.30700000  1.0
  O  O247  1  0.92260000  0.49840000  0.80700000  1.0
  O  O248  1  0.00740000  0.42270000  0.23940000  1.0
  O  O249  1  0.00740000  0.57730000  0.73940000  1.0
  O  O250  1  0.88680000  0.55240000  0.41990000  1.0
  O  O251  1  0.88680000  0.44760000  0.91990000  1.0
  O  O252  1  0.88160000  0.34950000  0.44930000  1.0
  O  O253  1  0.88160000  0.65050000  0.94930000  1.0
  O  O254  1  0.75080000  0.32550000  0.41590000  1.0
  O  O255  1  0.75080000  0.67450000  0.91590000  1.0
  O  O256  1  0.32990000  0.66790000  0.43150000  1.0
  O  O257  1  0.32990000  0.33210000  0.93150000  1.0
  O  O258  1  0.62680000  0.39210000  0.38130000  1.0
  O  O259  1  0.62680000  0.60790000  0.88130000  1.0
  O  O260  1  0.72790000  0.51230000  0.37610000  1.0
  O  O261  1  0.72790000  0.48770000  0.87610000  1.0
  O  O262  1  0.09520000  0.70050000  0.38050000  1.0
  O  O263  1  0.09520000  0.29950000  0.88050000  1.0
  O  O264  1  0.00490000  0.83280000  0.32330000  1.0
  O  O265  1  0.00490000  0.16720000  0.82330000  1.0
  O  O266  1  0.20760000  0.59690000  0.39740000  1.0
  O  O267  1  0.20760000  0.40310000  0.89740000  1.0
  O  O268  1  0.09320000  0.51460000  0.33570000  1.0
  O  O269  1  0.09320000  0.48540000  0.83570000  1.0
  O  O270  1  0.30990000  0.47780000  0.39740000  1.0
  O  O271  1  0.30990000  0.52220000  0.89740000  1.0
  O  O272  1  0.38070000  0.38100000  0.32390000  1.0
  O  O273  1  0.38070000  0.61900000  0.82390000  1.0
  O  O274  1  0.91960000  0.69220000  0.34110000  1.0
  O  O275  1  0.91960000  0.30780000  0.84110000  1.0
  O  O276  1  0.25610000  0.32670000  0.32050000  1.0
  O  O277  1  0.25610000  0.67330000  0.82050000  1.0
  O  O278  1  0.68450000  0.66260000  0.29450000  1.0
  O  O279  1  0.68450000  0.33740000  0.79450000  1.0
  O  O280  1  0.12450000  0.33990000  0.28970000  1.0
  O  O281  1  0.12450000  0.66010000  0.78970000  1.0
  O  O282  1  0.80670000  0.59210000  0.30270000  1.0
  O  O283  1  0.80670000  0.40790000  0.80270000  1.0
