# generated using pymatgen
data_Si23O48
_symmetry_space_group_name_H-M   Cc
_cell_length_a   20.40800000
_cell_length_b   13.30400000
_cell_length_c   20.16599948
_cell_angle_alpha   90.00000000
_cell_angle_beta   102.33299966
_cell_angle_gamma   90.00000000
_symmetry_Int_Tables_number   9
_chemical_formula_structural   Si23O48
_chemical_formula_sum   'Si92 O192'
_cell_volume   5348.87737992
_cell_formula_units_Z   4
loop_
 _symmetry_equiv_pos_site_id
 _symmetry_equiv_pos_as_xyz
  1  'x, y, z'
  2  'x, -y, z+1/2'
  3  'x+1/2, y+1/2, z'
  4  'x+1/2, -y+1/2, z+1/2'
loop_
 _atom_site_type_symbol
 _atom_site_label
 _atom_site_symmetry_multiplicity
 _atom_site_fract_x
 _atom_site_fract_y
 _atom_site_fract_z
 _atom_site_occupancy
  Si  Si0  4  0.08230000  0.20780000  0.68600000  1
  Si  Si1  4  0.08330000  0.19620000  0.83820000  1
  Si  Si2  4  0.08570000  0.44450000  0.26950000  1
  Si  Si3  4  0.08830000  0.43280000  0.03410000  1
  Si  Si4  4  0.12830000  0.40930000  0.89470000  1
  Si  Si5  4  0.12950000  0.42050000  0.65640000  1
  Si  Si6  4  0.18830000  0.27960000  0.11620000  1
  Si  Si7  4  0.18850000  0.27960000  0.27520000  1
  Si  Si8  4  0.20280000  0.07880000  0.91700000  1
  Si  Si9  4  0.20420000  0.08630000  0.67980000  1
  Si  Si10  4  0.23040000  0.06300000  0.30420000  1
  Si  Si11  4  0.23060000  0.07320000  0.07310000  1
  Si  Si12  4  0.28240000  0.43180000  0.70050000  1
  Si  Si13  4  0.28350000  0.42890000  0.93520000  1
  Si  Si14  4  0.30670000  0.42060000  0.32640000  1
  Si  Si15  4  0.30790000  0.41580000  0.09000000  1
  Si  Si16  4  0.32180000  0.21730000  0.90560000  1
  Si  Si17  4  0.32620000  0.22160000  0.74740000  1
  Si  Si18  4  0.38390000  0.08450000  0.34240000  1
  Si  Si19  4  0.38570000  0.07920000  0.10530000  1
  Si  Si20  4  0.42820000  0.29570000  0.30260000  1
  Si  Si21  4  0.42960000  0.05540000  0.73840000  1
  Si  Si22  4  0.43110000  0.28980000  0.15090000  1
  O  O23  4  0.00490000  0.16720000  0.82330000  1
  O  O24  4  0.00650000  0.16668333  0.66520000  1
  O  O25  4  0.00740000  0.42270000  0.23940000  1
  O  O26  4  0.00820000  0.41870000  0.01410000  1
  O  O27  4  0.08530000  0.32090000  0.65850000  1
  O  O28  4  0.09320000  0.48540000  0.83570000  1
  O  O29  4  0.09520000  0.29950000  0.88050000  1
  O  O30  4  0.10670000  0.20900000  0.76740000  1
  O  O31  4  0.10670000  0.47040000  0.58230000  1
  O  O32  4  0.11690000  0.45010000  0.96650000  1
  O  O33  4  0.11760000  0.49910000  0.71330000  1
  O  O34  4  0.12230000  0.33440000  0.07350000  1
  O  O35  4  0.12450000  0.33990000  0.28970000  1
  O  O36  4  0.12680000  0.10790000  0.88130000  1
  O  O37  4  0.13130000  0.13630000  0.65400000  1
  O  O38  4  0.18450000  0.16260000  0.29450000  1
  O  O39  4  0.18630000  0.16300000  0.09440000  1
  O  O40  4  0.18990000  0.28920000  0.19600000  1
  O  O41  4  0.20210000  0.01420000  0.74340000  1
  O  O42  4  0.20460000  0.04570000  0.99410000  1
  O  O43  4  0.20760000  0.40310000  0.89740000  1
  O  O44  4  0.20780000  0.39130000  0.66950000  1
  O  O45  4  0.22490000  0.02390000  0.61910000  1
  O  O46  4  0.22790000  0.01230000  0.37610000  1
  O  O47  4  0.25080000  0.17450000  0.91590000  1
  O  O48  4  0.25450000  0.33160000  0.10060000  1
  O  O49  4  0.25610000  0.32670000  0.32050000  1
  O  O50  4  0.25810000  0.17470000  0.70310000  1
  O  O51  4  0.28020000  0.49620000  0.26420000  1
  O  O52  4  0.28690000  0.45770000  0.01340000  1
  O  O53  4  0.30670000  0.09210000  0.30270000  1
  O  O54  4  0.30750000  0.10910000  0.08500000  1
  O  O55  4  0.30930000  0.49370000  0.64310000  1
  O  O56  4  0.30990000  0.47780000  0.39740000  1
  O  O57  4  0.32500000  0.21310000  0.82670000  1
  O  O58  4  0.32990000  0.33210000  0.93150000  1
  O  O59  4  0.33080000  0.33770000  0.72620000  1
  O  O60  4  0.38070000  0.38100000  0.32390000  1
  O  O61  4  0.38120000  0.36520000  0.10170000  1
  O  O62  4  0.38160000  0.15050000  0.94930000  1
  O  O63  4  0.38680000  0.05240000  0.41990000  1
  O  O64  4  0.38950000  0.16030000  0.73230000  1
  O  O65  4  0.39880000  0.01480000  0.17430000  1
  O  O66  4  0.40540000  0.01350000  0.04540000  1
  O  O67  4  0.40740000  0.27870000  0.22180000  1
  O  O68  4  0.41960000  0.19220000  0.34110000  1
  O  O69  4  0.42260000  0.00160000  0.30700000  1
  O  O70  4  0.42970000  0.18070000  0.11610000  1
