# generated using pymatgen
data_SiO2
_symmetry_space_group_name_H-M   'P 1'
_cell_length_a   14.40100000
_cell_length_b   18.87000000
_cell_length_c   7.51400000
_cell_angle_alpha   90.00000000
_cell_angle_beta   90.00000000
_cell_angle_gamma   90.00000000
_symmetry_Int_Tables_number   1
_chemical_formula_structural   SiO2
_chemical_formula_sum   'Si36 O72'
_cell_volume   2041.90598020
_cell_formula_units_Z   36
loop_
 _symmetry_equiv_pos_site_id
 _symmetry_equiv_pos_as_xyz
  1  'x, y, z'
loop_
 _atom_site_type_symbol
 _atom_site_label
 _atom_site_symmetry_multiplicity
 _atom_site_fract_x
 _atom_site_fract_y
 _atom_site_fract_z
 _atom_site_occupancy
  Si  Si0  1  0.19710000  0.08220000  0.29250000  1.0
  Si  Si1  1  0.80290000  0.91780000  0.70750000  1.0
  Si  Si2  1  0.80290000  0.91780000  0.29250000  1.0
  Si  Si3  1  0.19710000  0.08220000  0.70750000  1.0
  Si  Si4  1  0.19710000  0.91780000  0.70750000  1.0
  Si  Si5  1  0.80290000  0.08220000  0.29250000  1.0
  Si  Si6  1  0.80290000  0.08220000  0.70750000  1.0
  Si  Si7  1  0.19710000  0.91780000  0.29250000  1.0
  Si  Si8  1  0.50000000  0.64880000  0.29250000  1.0
  Si  Si9  1  0.50000000  0.35120000  0.70750000  1.0
  Si  Si10  1  0.50000000  0.35120000  0.29250000  1.0
  Si  Si11  1  0.50000000  0.64880000  0.70750000  1.0
  Si  Si12  1  0.70230000  0.82700000  0.00000000  1.0
  Si  Si13  1  0.29770000  0.17300000  0.00000000  1.0
  Si  Si14  1  0.70230000  0.17300000  0.00000000  1.0
  Si  Si15  1  0.29770000  0.82700000  0.00000000  1.0
  Si  Si16  1  0.50000000  0.76920000  0.00000000  1.0
  Si  Si17  1  0.50000000  0.23080000  0.00000000  1.0
  Si  Si18  1  0.69710000  0.58220000  0.29250000  1.0
  Si  Si19  1  0.30290000  0.41780000  0.70750000  1.0
  Si  Si20  1  0.30290000  0.41780000  0.29250000  1.0
  Si  Si21  1  0.69710000  0.58220000  0.70750000  1.0
  Si  Si22  1  0.69710000  0.41780000  0.70750000  1.0
  Si  Si23  1  0.30290000  0.58220000  0.29250000  1.0
  Si  Si24  1  0.30290000  0.58220000  0.70750000  1.0
  Si  Si25  1  0.69710000  0.41780000  0.29250000  1.0
  Si  Si26  1  0.00000000  0.14880000  0.29250000  1.0
  Si  Si27  1  0.00000000  0.85120000  0.70750000  1.0
  Si  Si28  1  0.00000000  0.85120000  0.29250000  1.0
  Si  Si29  1  0.00000000  0.14880000  0.70750000  1.0
  Si  Si30  1  0.20230000  0.32700000  0.00000000  1.0
  Si  Si31  1  0.79770000  0.67300000  0.00000000  1.0
  Si  Si32  1  0.20230000  0.67300000  0.00000000  1.0
  Si  Si33  1  0.79770000  0.32700000  0.00000000  1.0
  Si  Si34  1  0.00000000  0.26920000  0.00000000  1.0
  Si  Si35  1  0.00000000  0.73080000  0.00000000  1.0
  O  O36  1  0.59120000  0.60290000  0.24740000  1.0
  O  O37  1  0.40880000  0.39710000  0.75260000  1.0
  O  O38  1  0.40880000  0.39710000  0.24740000  1.0
  O  O39  1  0.59120000  0.60290000  0.75260000  1.0
  O  O40  1  0.59120000  0.39710000  0.75260000  1.0
  O  O41  1  0.40880000  0.60290000  0.24740000  1.0
  O  O42  1  0.40880000  0.60290000  0.75260000  1.0
  O  O43  1  0.59120000  0.39710000  0.24740000  1.0
  O  O44  1  0.73370000  0.86980000  0.17510000  1.0
  O  O45  1  0.26630000  0.13020000  0.82490000  1.0
  O  O46  1  0.26630000  0.13020000  0.17510000  1.0
  O  O47  1  0.73370000  0.86980000  0.82490000  1.0
  O  O48  1  0.73370000  0.13020000  0.82490000  1.0
  O  O49  1  0.26630000  0.86980000  0.17510000  1.0
  O  O50  1  0.26630000  0.86980000  0.82490000  1.0
  O  O51  1  0.73370000  0.13020000  0.17510000  1.0
  O  O52  1  0.50000000  0.72010000  0.17510000  1.0
  O  O53  1  0.50000000  0.27990000  0.82490000  1.0
  O  O54  1  0.50000000  0.27990000  0.17510000  1.0
  O  O55  1  0.50000000  0.72010000  0.82490000  1.0
  O  O56  1  0.59110000  0.81860000  0.00000000  1.0
  O  O57  1  0.40890000  0.18140000  0.00000000  1.0
  O  O58  1  0.59110000  0.18140000  0.00000000  1.0
  O  O59  1  0.40890000  0.81860000  0.00000000  1.0
  O  O60  1  0.21450000  0.00000000  0.24640000  1.0
  O  O61  1  0.78550000  0.00000000  0.75360000  1.0
  O  O62  1  0.78550000  0.00000000  0.24640000  1.0
  O  O63  1  0.21450000  0.00000000  0.75360000  1.0
  O  O64  1  0.21760000  0.09620000  0.50000000  1.0
  O  O65  1  0.78240000  0.90380000  0.50000000  1.0
  O  O66  1  0.21760000  0.90380000  0.50000000  1.0
  O  O67  1  0.78240000  0.09620000  0.50000000  1.0
  O  O68  1  0.50000000  0.66990000  0.50000000  1.0
  O  O69  1  0.50000000  0.33010000  0.50000000  1.0
  O  O70  1  0.25000000  0.25000000  0.00000000  1.0
  O  O71  1  0.25000000  0.75000000  0.00000000  1.0
  O  O72  1  0.09120000  0.10290000  0.24740000  1.0
  O  O73  1  0.90880000  0.89710000  0.75260000  1.0
  O  O74  1  0.90880000  0.89710000  0.24740000  1.0
  O  O75  1  0.09120000  0.10290000  0.75260000  1.0
  O  O76  1  0.09120000  0.89710000  0.75260000  1.0
  O  O77  1  0.90880000  0.10290000  0.24740000  1.0
  O  O78  1  0.90880000  0.10290000  0.75260000  1.0
  O  O79  1  0.09120000  0.89710000  0.24740000  1.0
  O  O80  1  0.23370000  0.36980000  0.17510000  1.0
  O  O81  1  0.76630000  0.63020000  0.82490000  1.0
  O  O82  1  0.76630000  0.63020000  0.17510000  1.0
  O  O83  1  0.23370000  0.36980000  0.82490000  1.0
  O  O84  1  0.23370000  0.63020000  0.82490000  1.0
  O  O85  1  0.76630000  0.36980000  0.17510000  1.0
  O  O86  1  0.76630000  0.36980000  0.82490000  1.0
  O  O87  1  0.23370000  0.63020000  0.17510000  1.0
  O  O88  1  0.00000000  0.22010000  0.17510000  1.0
  O  O89  1  0.00000000  0.77990000  0.82490000  1.0
  O  O90  1  0.00000000  0.77990000  0.17510000  1.0
  O  O91  1  0.00000000  0.22010000  0.82490000  1.0
  O  O92  1  0.09110000  0.31860000  0.00000000  1.0
  O  O93  1  0.90890000  0.68140000  0.00000000  1.0
  O  O94  1  0.09110000  0.68140000  0.00000000  1.0
  O  O95  1  0.90890000  0.31860000  0.00000000  1.0
  O  O96  1  0.71450000  0.50000000  0.24640000  1.0
  O  O97  1  0.28550000  0.50000000  0.75360000  1.0
  O  O98  1  0.28550000  0.50000000  0.24640000  1.0
  O  O99  1  0.71450000  0.50000000  0.75360000  1.0
  O  O100  1  0.71760000  0.59620000  0.50000000  1.0
  O  O101  1  0.28240000  0.40380000  0.50000000  1.0
  O  O102  1  0.71760000  0.40380000  0.50000000  1.0
  O  O103  1  0.28240000  0.59620000  0.50000000  1.0
  O  O104  1  0.00000000  0.16990000  0.50000000  1.0
  O  O105  1  0.00000000  0.83010000  0.50000000  1.0
  O  O106  1  0.75000000  0.75000000  0.00000000  1.0
  O  O107  1  0.75000000  0.25000000  0.00000000  1.0
