# generated using pymatgen
data_SiO2
_symmetry_space_group_name_H-M   Cmmm
_cell_length_a   14.40100000
_cell_length_b   18.87000000
_cell_length_c   7.51400000
_cell_angle_alpha   90.00000000
_cell_angle_beta   90.00000000
_cell_angle_gamma   90.00000000
_symmetry_Int_Tables_number   65
_chemical_formula_structural   SiO2
_chemical_formula_sum   'Si36 O72'
_cell_volume   2041.90598118
_cell_formula_units_Z   36
loop_
 _symmetry_equiv_pos_site_id
 _symmetry_equiv_pos_as_xyz
  1  'x, y, z'
  2  '-x, -y, -z'
  3  '-x, -y, z'
  4  'x, y, -z'
  5  'x, -y, -z'
  6  '-x, y, z'
  7  '-x, y, -z'
  8  'x, -y, z'
  9  'x+1/2, y+1/2, z'
  10  '-x+1/2, -y+1/2, -z'
  11  '-x+1/2, -y+1/2, z'
  12  'x+1/2, y+1/2, -z'
  13  'x+1/2, -y+1/2, -z'
  14  '-x+1/2, y+1/2, z'
  15  '-x+1/2, y+1/2, -z'
  16  'x+1/2, -y+1/2, z'
loop_
 _atom_site_type_symbol
 _atom_site_label
 _atom_site_symmetry_multiplicity
 _atom_site_fract_x
 _atom_site_fract_y
 _atom_site_fract_z
 _atom_site_occupancy
  Si  Si0  16  0.19710000  0.08220000  0.29250000  1
  Si  Si1  8  0.00000000  0.14880000  0.29250000  1
  Si  Si2  8  0.20230000  0.32700000  0.00000000  1
  Si  Si3  4  0.00000000  0.26920000  0.00000000  1
  O  O4  16  0.09120000  0.10290000  0.24740000  1
  O  O5  16  0.23370000  0.36980000  0.17510000  1
  O  O6  8  0.00000000  0.22010000  0.17510000  1
  O  O7  8  0.09110000  0.31860000  0.00000000  1
  O  O8  8  0.21450000  0.00000000  0.24640000  1
  O  O9  8  0.21760000  0.09620000  0.50000000  1
  O  O10  4  0.00000000  0.16990000  0.50000000  1
  O  O11  4  0.25000000  0.25000000  0.00000000  1
