# generated using pymatgen
data_SiO2
_symmetry_space_group_name_H-M   'P 1'
_cell_length_a   27.84500000
_cell_length_b   20.01500000
_cell_length_c   19.59599977
_cell_angle_alpha   90.00000000
_cell_angle_beta   93.19999942
_cell_angle_gamma   90.00000000
_symmetry_Int_Tables_number   1
_chemical_formula_structural   SiO2
_chemical_formula_sum   'Si192 O384'
_cell_volume   10904.16831736
_cell_formula_units_Z   192
loop_
 _symmetry_equiv_pos_site_id
 _symmetry_equiv_pos_as_xyz
  1  'x, y, z'
loop_
 _atom_site_type_symbol
 _atom_site_label
 _atom_site_symmetry_multiplicity
 _atom_site_fract_x
 _atom_site_fract_y
 _atom_site_fract_z
 _atom_site_occupancy
  Si  Si0  1  0.50210000  0.69690000  0.24540000  1.0
  Si  Si1  1  0.49790000  0.30310000  0.75460000  1.0
  Si  Si2  1  0.49790000  0.69690000  0.75460000  1.0
  Si  Si3  1  0.50210000  0.30310000  0.24540000  1.0
  Si  Si4  1  0.50220000  0.81690000  0.86190000  1.0
  Si  Si5  1  0.49780000  0.18310000  0.13810000  1.0
  Si  Si6  1  0.49780000  0.81690000  0.13810000  1.0
  Si  Si7  1  0.50220000  0.18310000  0.86190000  1.0
  Si  Si8  1  0.50480000  0.57740000  0.14510000  1.0
  Si  Si9  1  0.49520000  0.42260000  0.85490000  1.0
  Si  Si10  1  0.49520000  0.57740000  0.85490000  1.0
  Si  Si11  1  0.50480000  0.42260000  0.14510000  1.0
  Si  Si12  1  0.50880000  0.92270000  0.25640000  1.0
  Si  Si13  1  0.49120000  0.07730000  0.74360000  1.0
  Si  Si14  1  0.49120000  0.92270000  0.74360000  1.0
  Si  Si15  1  0.50880000  0.07730000  0.25640000  1.0
  Si  Si16  1  0.59430000  0.62500000  0.92730000  1.0
  Si  Si17  1  0.40570000  0.37500000  0.07270000  1.0
  Si  Si18  1  0.40570000  0.62500000  0.07270000  1.0
  Si  Si19  1  0.59430000  0.37500000  0.92730000  1.0
  Si  Si20  1  0.59770000  0.92360000  0.71330000  1.0
  Si  Si21  1  0.40230000  0.07640000  0.28670000  1.0
  Si  Si22  1  0.40230000  0.92360000  0.28670000  1.0
  Si  Si23  1  0.59770000  0.07640000  0.71330000  1.0
  Si  Si24  1  0.59870000  0.78330000  0.93510000  1.0
  Si  Si25  1  0.40130000  0.21670000  0.06490000  1.0
  Si  Si26  1  0.40130000  0.78330000  0.06490000  1.0
  Si  Si27  1  0.59870000  0.21670000  0.93510000  1.0
  Si  Si28  1  0.60000000  0.81290000  0.08850000  1.0
  Si  Si29  1  0.40000000  0.18710000  0.91150000  1.0
  Si  Si30  1  0.40000000  0.81290000  0.91150000  1.0
  Si  Si31  1  0.60000000  0.18710000  0.08850000  1.0
  Si  Si32  1  0.60260000  0.69000000  0.71330000  1.0
  Si  Si33  1  0.39740000  0.31000000  0.28670000  1.0
  Si  Si34  1  0.39740000  0.69000000  0.28670000  1.0
  Si  Si35  1  0.60260000  0.31000000  0.71330000  1.0
  Si  Si36  1  0.10360000  0.07760000  0.08010000  1.0
  Si  Si37  1  0.89640000  0.92240000  0.91990000  1.0
  Si  Si38  1  0.89640000  0.07760000  0.91990000  1.0
  Si  Si39  1  0.10360000  0.92240000  0.08010000  1.0
  Si  Si40  1  0.60650000  0.72400000  0.30290000  1.0
  Si  Si41  1  0.39350000  0.27600000  0.69710000  1.0
  Si  Si42  1  0.39350000  0.72400000  0.69710000  1.0
  Si  Si43  1  0.60650000  0.27600000  0.30290000  1.0
  Si  Si44  1  0.60980000  0.87970000  0.30730000  1.0
  Si  Si45  1  0.39020000  0.12030000  0.69270000  1.0
  Si  Si46  1  0.39020000  0.87970000  0.69270000  1.0
  Si  Si47  1  0.60980000  0.12030000  0.30730000  1.0
  Si  Si48  1  0.14570000  0.07640000  0.80250000  1.0
  Si  Si49  1  0.85430000  0.92360000  0.19750000  1.0
  Si  Si50  1  0.85430000  0.07640000  0.19750000  1.0
  Si  Si51  1  0.14570000  0.92360000  0.80250000  1.0
  Si  Si52  1  0.64630000  0.81150000  0.80300000  1.0
  Si  Si53  1  0.35370000  0.18850000  0.19700000  1.0
  Si  Si54  1  0.35370000  0.81150000  0.19700000  1.0
  Si  Si55  1  0.64630000  0.18850000  0.80300000  1.0
  Si  Si56  1  0.65050000  0.69020000  0.16950000  1.0
  Si  Si57  1  0.34950000  0.30980000  0.83050000  1.0
  Si  Si58  1  0.34950000  0.69020000  0.83050000  1.0
  Si  Si59  1  0.65050000  0.30980000  0.16950000  1.0
  Si  Si60  1  0.65410000  0.92390000  0.17340000  1.0
  Si  Si61  1  0.34590000  0.07610000  0.82660000  1.0
  Si  Si62  1  0.34590000  0.92390000  0.82660000  1.0
  Si  Si63  1  0.65410000  0.07610000  0.17340000  1.0
  Si  Si64  1  0.66380000  0.71910000  0.44000000  1.0
  Si  Si65  1  0.33620000  0.28090000  0.56000000  1.0
  Si  Si66  1  0.33620000  0.71910000  0.56000000  1.0
  Si  Si67  1  0.66380000  0.28090000  0.44000000  1.0
  Si  Si68  1  0.66400000  0.92180000  0.59430000  1.0
  Si  Si69  1  0.33600000  0.07820000  0.40570000  1.0
  Si  Si70  1  0.33600000  0.92180000  0.40570000  1.0
  Si  Si71  1  0.66400000  0.07820000  0.59430000  1.0
  Si  Si72  1  0.66580000  0.68960000  0.58840000  1.0
  Si  Si73  1  0.33420000  0.31040000  0.41160000  1.0
  Si  Si74  1  0.33420000  0.68960000  0.41160000  1.0
  Si  Si75  1  0.66580000  0.31040000  0.58840000  1.0
  Si  Si76  1  0.66750000  0.87920000  0.44470000  1.0
  Si  Si77  1  0.33250000  0.12080000  0.55530000  1.0
  Si  Si78  1  0.33250000  0.87920000  0.55530000  1.0
  Si  Si79  1  0.66750000  0.12080000  0.44470000  1.0
  Si  Si80  1  0.74020000  0.80940000  0.62040000  1.0
  Si  Si81  1  0.25980000  0.19060000  0.37960000  1.0
  Si  Si82  1  0.25980000  0.80940000  0.37960000  1.0
  Si  Si83  1  0.74020000  0.19060000  0.62040000  1.0
  Si  Si84  1  0.24080000  0.07850000  0.62210000  1.0
  Si  Si85  1  0.75920000  0.92150000  0.37790000  1.0
  Si  Si86  1  0.75920000  0.07850000  0.37790000  1.0
  Si  Si87  1  0.24080000  0.92150000  0.62210000  1.0
  Si  Si88  1  0.24770000  0.12280000  0.77150000  1.0
  Si  Si89  1  0.75230000  0.87720000  0.22850000  1.0
  Si  Si90  1  0.75230000  0.12280000  0.22850000  1.0
  Si  Si91  1  0.24770000  0.87720000  0.77150000  1.0
  Si  Si92  1  0.74820000  0.77830000  0.77280000  1.0
  Si  Si93  1  0.25180000  0.22170000  0.22720000  1.0
  Si  Si94  1  0.25180000  0.77830000  0.22720000  1.0
  Si  Si95  1  0.74820000  0.22170000  0.77280000  1.0
  Si  Si96  1  0.00210000  0.19690000  0.24540000  1.0
  Si  Si97  1  0.99790000  0.80310000  0.75460000  1.0
  Si  Si98  1  0.99790000  0.19690000  0.75460000  1.0
  Si  Si99  1  0.00210000  0.80310000  0.24540000  1.0
  Si  Si100  1  0.00220000  0.31690000  0.86190000  1.0
  Si  Si101  1  0.99780000  0.68310000  0.13810000  1.0
  Si  Si102  1  0.99780000  0.31690000  0.13810000  1.0
  Si  Si103  1  0.00220000  0.68310000  0.86190000  1.0
  Si  Si104  1  0.00480000  0.07740000  0.14510000  1.0
  Si  Si105  1  0.99520000  0.92260000  0.85490000  1.0
  Si  Si106  1  0.99520000  0.07740000  0.85490000  1.0
  Si  Si107  1  0.00480000  0.92260000  0.14510000  1.0
  Si  Si108  1  0.00880000  0.42270000  0.25640000  1.0
  Si  Si109  1  0.99120000  0.57730000  0.74360000  1.0
  Si  Si110  1  0.99120000  0.42270000  0.74360000  1.0
  Si  Si111  1  0.00880000  0.57730000  0.25640000  1.0
  Si  Si112  1  0.09430000  0.12500000  0.92730000  1.0
  Si  Si113  1  0.90570000  0.87500000  0.07270000  1.0
  Si  Si114  1  0.90570000  0.12500000  0.07270000  1.0
  Si  Si115  1  0.09430000  0.87500000  0.92730000  1.0
  Si  Si116  1  0.09770000  0.42360000  0.71330000  1.0
  Si  Si117  1  0.90230000  0.57640000  0.28670000  1.0
  Si  Si118  1  0.90230000  0.42360000  0.28670000  1.0
  Si  Si119  1  0.09770000  0.57640000  0.71330000  1.0
  Si  Si120  1  0.09870000  0.28330000  0.93510000  1.0
  Si  Si121  1  0.90130000  0.71670000  0.06490000  1.0
  Si  Si122  1  0.90130000  0.28330000  0.06490000  1.0
  Si  Si123  1  0.09870000  0.71670000  0.93510000  1.0
  Si  Si124  1  0.10000000  0.31290000  0.08850000  1.0
  Si  Si125  1  0.90000000  0.68710000  0.91150000  1.0
  Si  Si126  1  0.90000000  0.31290000  0.91150000  1.0
  Si  Si127  1  0.10000000  0.68710000  0.08850000  1.0
  Si  Si128  1  0.10260000  0.19000000  0.71330000  1.0
  Si  Si129  1  0.89740000  0.81000000  0.28670000  1.0
  Si  Si130  1  0.89740000  0.19000000  0.28670000  1.0
  Si  Si131  1  0.10260000  0.81000000  0.71330000  1.0
  Si  Si132  1  0.60360000  0.57760000  0.08010000  1.0
  Si  Si133  1  0.39640000  0.42240000  0.91990000  1.0
  Si  Si134  1  0.39640000  0.57760000  0.91990000  1.0
  Si  Si135  1  0.60360000  0.42240000  0.08010000  1.0
  Si  Si136  1  0.10650000  0.22400000  0.30290000  1.0
  Si  Si137  1  0.89350000  0.77600000  0.69710000  1.0
  Si  Si138  1  0.89350000  0.22400000  0.69710000  1.0
  Si  Si139  1  0.10650000  0.77600000  0.30290000  1.0
  Si  Si140  1  0.10980000  0.37970000  0.30730000  1.0
  Si  Si141  1  0.89020000  0.62030000  0.69270000  1.0
  Si  Si142  1  0.89020000  0.37970000  0.69270000  1.0
  Si  Si143  1  0.10980000  0.62030000  0.30730000  1.0
  Si  Si144  1  0.64570000  0.57640000  0.80250000  1.0
  Si  Si145  1  0.35430000  0.42360000  0.19750000  1.0
  Si  Si146  1  0.35430000  0.57640000  0.19750000  1.0
  Si  Si147  1  0.64570000  0.42360000  0.80250000  1.0
  Si  Si148  1  0.14630000  0.31150000  0.80300000  1.0
  Si  Si149  1  0.85370000  0.68850000  0.19700000  1.0
  Si  Si150  1  0.85370000  0.31150000  0.19700000  1.0
  Si  Si151  1  0.14630000  0.68850000  0.80300000  1.0
  Si  Si152  1  0.15050000  0.19020000  0.16950000  1.0
  Si  Si153  1  0.84950000  0.80980000  0.83050000  1.0
  Si  Si154  1  0.84950000  0.19020000  0.83050000  1.0
  Si  Si155  1  0.15050000  0.80980000  0.16950000  1.0
  Si  Si156  1  0.15410000  0.42390000  0.17340000  1.0
  Si  Si157  1  0.84590000  0.57610000  0.82660000  1.0
  Si  Si158  1  0.84590000  0.42390000  0.82660000  1.0
  Si  Si159  1  0.15410000  0.57610000  0.17340000  1.0
  Si  Si160  1  0.16380000  0.21910000  0.44000000  1.0
  Si  Si161  1  0.83620000  0.78090000  0.56000000  1.0
  Si  Si162  1  0.83620000  0.21910000  0.56000000  1.0
  Si  Si163  1  0.16380000  0.78090000  0.44000000  1.0
  Si  Si164  1  0.16400000  0.42180000  0.59430000  1.0
  Si  Si165  1  0.83600000  0.57820000  0.40570000  1.0
  Si  Si166  1  0.83600000  0.42180000  0.40570000  1.0
  Si  Si167  1  0.16400000  0.57820000  0.59430000  1.0
  Si  Si168  1  0.16580000  0.18960000  0.58840000  1.0
  Si  Si169  1  0.83420000  0.81040000  0.41160000  1.0
  Si  Si170  1  0.83420000  0.18960000  0.41160000  1.0
  Si  Si171  1  0.16580000  0.81040000  0.58840000  1.0
  Si  Si172  1  0.16750000  0.37920000  0.44470000  1.0
  Si  Si173  1  0.83250000  0.62080000  0.55530000  1.0
  Si  Si174  1  0.83250000  0.37920000  0.55530000  1.0
  Si  Si175  1  0.16750000  0.62080000  0.44470000  1.0
  Si  Si176  1  0.24020000  0.30940000  0.62040000  1.0
  Si  Si177  1  0.75980000  0.69060000  0.37960000  1.0
  Si  Si178  1  0.75980000  0.30940000  0.37960000  1.0
  Si  Si179  1  0.24020000  0.69060000  0.62040000  1.0
  Si  Si180  1  0.74080000  0.57850000  0.62210000  1.0
  Si  Si181  1  0.25920000  0.42150000  0.37790000  1.0
  Si  Si182  1  0.25920000  0.57850000  0.37790000  1.0
  Si  Si183  1  0.74080000  0.42150000  0.62210000  1.0
  Si  Si184  1  0.74770000  0.62280000  0.77150000  1.0
  Si  Si185  1  0.25230000  0.37720000  0.22850000  1.0
  Si  Si186  1  0.25230000  0.62280000  0.22850000  1.0
  Si  Si187  1  0.74770000  0.37720000  0.77150000  1.0
  Si  Si188  1  0.24820000  0.27830000  0.77280000  1.0
  Si  Si189  1  0.75180000  0.72170000  0.22720000  1.0
  Si  Si190  1  0.75180000  0.27830000  0.22720000  1.0
  Si  Si191  1  0.24820000  0.72170000  0.77280000  1.0
  O  O192  1  0.50380000  0.88240000  0.18540000  1.0
  O  O193  1  0.49620000  0.11760000  0.81460000  1.0
  O  O194  1  0.49620000  0.88240000  0.81460000  1.0
  O  O195  1  0.50380000  0.11760000  0.18540000  1.0
  O  O196  1  0.50450000  0.75120000  0.81500000  1.0
  O  O197  1  0.49550000  0.24880000  0.18500000  1.0
  O  O198  1  0.49550000  0.75120000  0.18500000  1.0
  O  O199  1  0.50450000  0.24880000  0.81500000  1.0
  O  O200  1  0.50770000  0.62390000  0.21220000  1.0
  O  O201  1  0.49230000  0.37610000  0.78780000  1.0
  O  O202  1  0.49230000  0.62390000  0.78780000  1.0
  O  O203  1  0.50770000  0.37610000  0.21220000  1.0
  O  O204  1  0.54010000  0.91700000  0.70390000  1.0
  O  O205  1  0.45990000  0.08300000  0.29610000  1.0
  O  O206  1  0.45990000  0.91700000  0.29610000  1.0
  O  O207  1  0.54010000  0.08300000  0.70390000  1.0
  O  O208  1  0.54230000  0.81090000  0.08930000  1.0
  O  O209  1  0.45770000  0.18910000  0.91070000  1.0
  O  O210  1  0.45770000  0.81090000  0.91070000  1.0
  O  O211  1  0.54230000  0.18910000  0.08930000  1.0
  O  O212  1  0.54470000  0.59120000  0.89880000  1.0
  O  O213  1  0.45530000  0.40880000  0.10120000  1.0
  O  O214  1  0.45530000  0.59120000  0.10120000  1.0
  O  O215  1  0.54470000  0.40880000  0.89880000  1.0
  O  O216  1  0.54500000  0.69790000  0.71040000  1.0
  O  O217  1  0.45500000  0.30210000  0.28960000  1.0
  O  O218  1  0.45500000  0.69790000  0.28960000  1.0
  O  O219  1  0.54500000  0.30210000  0.71040000  1.0
  O  O220  1  0.54920000  0.71420000  0.29360000  1.0
  O  O221  1  0.45080000  0.28580000  0.70640000  1.0
  O  O222  1  0.45080000  0.71420000  0.70640000  1.0
  O  O223  1  0.54920000  0.28580000  0.29360000  1.0
  O  O224  1  0.54930000  0.59420000  0.09890000  1.0
  O  O225  1  0.45070000  0.40580000  0.90110000  1.0
  O  O226  1  0.45070000  0.59420000  0.90110000  1.0
  O  O227  1  0.54930000  0.40580000  0.09890000  1.0
  O  O228  1  0.55070000  0.82340000  0.91020000  1.0
  O  O229  1  0.44930000  0.17660000  0.08980000  1.0
  O  O230  1  0.44930000  0.82340000  0.08980000  1.0
  O  O231  1  0.55070000  0.17660000  0.91020000  1.0
  O  O232  1  0.55260000  0.89210000  0.30360000  1.0
  O  O233  1  0.44740000  0.10790000  0.69640000  1.0
  O  O234  1  0.44740000  0.89210000  0.69640000  1.0
  O  O235  1  0.55260000  0.10790000  0.30360000  1.0
  O  O236  1  0.58740000  0.70440000  0.93460000  1.0
  O  O237  1  0.41260000  0.29560000  0.06540000  1.0
  O  O238  1  0.41260000  0.70440000  0.06540000  1.0
  O  O239  1  0.58740000  0.29560000  0.93460000  1.0
  O  O240  1  0.11020000  0.09340000  0.00060000  1.0
  O  O241  1  0.88980000  0.90660000  0.99940000  1.0
  O  O242  1  0.88980000  0.09340000  0.99940000  1.0
  O  O243  1  0.11020000  0.90660000  0.00060000  1.0
  O  O244  1  0.61600000  0.80680000  0.01110000  1.0
  O  O245  1  0.38400000  0.19320000  0.98890000  1.0
  O  O246  1  0.38400000  0.80680000  0.98890000  1.0
  O  O247  1  0.61600000  0.19320000  0.01110000  1.0
  O  O248  1  0.61670000  0.87600000  0.77530000  1.0
  O  O249  1  0.38330000  0.12400000  0.22470000  1.0
  O  O250  1  0.38330000  0.87600000  0.22470000  1.0
  O  O251  1  0.61670000  0.12400000  0.77530000  1.0
  O  O252  1  0.11720000  0.11690000  0.74190000  1.0
  O  O253  1  0.88280000  0.88310000  0.25810000  1.0
  O  O254  1  0.88280000  0.11690000  0.25810000  1.0
  O  O255  1  0.11720000  0.88310000  0.74190000  1.0
  O  O256  1  0.61890000  0.88260000  0.12110000  1.0
  O  O257  1  0.38110000  0.11740000  0.87890000  1.0
  O  O258  1  0.38110000  0.88260000  0.87890000  1.0
  O  O259  1  0.61890000  0.11740000  0.12110000  1.0
  O  O260  1  0.62010000  0.80170000  0.29460000  1.0
  O  O261  1  0.37990000  0.19830000  0.70540000  1.0
  O  O262  1  0.37990000  0.80170000  0.70540000  1.0
  O  O263  1  0.62010000  0.19830000  0.29460000  1.0
  O  O264  1  0.62160000  0.90270000  0.64340000  1.0
  O  O265  1  0.37840000  0.09730000  0.35660000  1.0
  O  O266  1  0.37840000  0.90270000  0.35660000  1.0
  O  O267  1  0.62160000  0.09730000  0.64340000  1.0
  O  O268  1  0.62190000  0.75150000  0.13300000  1.0
  O  O269  1  0.37810000  0.24850000  0.86700000  1.0
  O  O270  1  0.37810000  0.75150000  0.86700000  1.0
  O  O271  1  0.62190000  0.24850000  0.13300000  1.0
  O  O272  1  0.62220000  0.69900000  0.63810000  1.0
  O  O273  1  0.37780000  0.30100000  0.36190000  1.0
  O  O274  1  0.37780000  0.69900000  0.36190000  1.0
  O  O275  1  0.62220000  0.30100000  0.63810000  1.0
  O  O276  1  0.62660000  0.69960000  0.37740000  1.0
  O  O277  1  0.37340000  0.30040000  0.62260000  1.0
  O  O278  1  0.37340000  0.69960000  0.62260000  1.0
  O  O279  1  0.62660000  0.30040000  0.37740000  1.0
  O  O280  1  0.62720000  0.74580000  0.76280000  1.0
  O  O281  1  0.37280000  0.25420000  0.23720000  1.0
  O  O282  1  0.37280000  0.74580000  0.23720000  1.0
  O  O283  1  0.62720000  0.25420000  0.76280000  1.0
  O  O284  1  0.63200000  0.90230000  0.38130000  1.0
  O  O285  1  0.36800000  0.09770000  0.61870000  1.0
  O  O286  1  0.36800000  0.90230000  0.61870000  1.0
  O  O287  1  0.63200000  0.09770000  0.38130000  1.0
  O  O288  1  0.63220000  0.68130000  0.24550000  1.0
  O  O289  1  0.36780000  0.31870000  0.75450000  1.0
  O  O290  1  0.36780000  0.68130000  0.75450000  1.0
  O  O291  1  0.63220000  0.31870000  0.24550000  1.0
  O  O292  1  0.63380000  0.92280000  0.24870000  1.0
  O  O293  1  0.36620000  0.07720000  0.75130000  1.0
  O  O294  1  0.36620000  0.92280000  0.75130000  1.0
  O  O295  1  0.63380000  0.07720000  0.24870000  1.0
  O  O296  1  0.13550000  0.11030000  0.87470000  1.0
  O  O297  1  0.86450000  0.88970000  0.12530000  1.0
  O  O298  1  0.86450000  0.11030000  0.12530000  1.0
  O  O299  1  0.13550000  0.88970000  0.87470000  1.0
  O  O300  1  0.63990000  0.80060000  0.88340000  1.0
  O  O301  1  0.36010000  0.19940000  0.11660000  1.0
  O  O302  1  0.36010000  0.80060000  0.11660000  1.0
  O  O303  1  0.63990000  0.19940000  0.88340000  1.0
  O  O304  1  0.14050000  0.12280000  0.12630000  1.0
  O  O305  1  0.85950000  0.87720000  0.87370000  1.0
  O  O306  1  0.85950000  0.12280000  0.87370000  1.0
  O  O307  1  0.14050000  0.87720000  0.12630000  1.0
  O  O308  1  0.64420000  0.69100000  0.51030000  1.0
  O  O309  1  0.35580000  0.30900000  0.48970000  1.0
  O  O310  1  0.35580000  0.69100000  0.48970000  1.0
  O  O311  1  0.64420000  0.30900000  0.51030000  1.0
  O  O312  1  0.64830000  0.90600000  0.51570000  1.0
  O  O313  1  0.35170000  0.09400000  0.48430000  1.0
  O  O314  1  0.35170000  0.90600000  0.48430000  1.0
  O  O315  1  0.64830000  0.09400000  0.51570000  1.0
  O  O316  1  0.66940000  0.79890000  0.44580000  1.0
  O  O317  1  0.33060000  0.20110000  0.55420000  1.0
  O  O318  1  0.33060000  0.79890000  0.55420000  1.0
  O  O319  1  0.66940000  0.20110000  0.44580000  1.0
  O  O320  1  0.19180000  0.11870000  0.60270000  1.0
  O  O321  1  0.80820000  0.88130000  0.39730000  1.0
  O  O322  1  0.80820000  0.11870000  0.39730000  1.0
  O  O323  1  0.19180000  0.88130000  0.60270000  1.0
  O  O324  1  0.70250000  0.82270000  0.79150000  1.0
  O  O325  1  0.29750000  0.17730000  0.20850000  1.0
  O  O326  1  0.29750000  0.82270000  0.20850000  1.0
  O  O327  1  0.70250000  0.17730000  0.79150000  1.0
  O  O328  1  0.20260000  0.07800000  0.79140000  1.0
  O  O329  1  0.79740000  0.92200000  0.20860000  1.0
  O  O330  1  0.79740000  0.07800000  0.20860000  1.0
  O  O331  1  0.20260000  0.92200000  0.79140000  1.0
  O  O332  1  0.70440000  0.74890000  0.59920000  1.0
  O  O333  1  0.29560000  0.25110000  0.40080000  1.0
  O  O334  1  0.29560000  0.74890000  0.40080000  1.0
  O  O335  1  0.70440000  0.25110000  0.59920000  1.0
  O  O336  1  0.70710000  0.89140000  0.17560000  1.0
  O  O337  1  0.29290000  0.10860000  0.82440000  1.0
  O  O338  1  0.29290000  0.89140000  0.82440000  1.0
  O  O339  1  0.70710000  0.10860000  0.17560000  1.0
  O  O340  1  0.20720000  0.20660000  0.17360000  1.0
  O  O341  1  0.79280000  0.79340000  0.82640000  1.0
  O  O342  1  0.79280000  0.20660000  0.82640000  1.0
  O  O343  1  0.20720000  0.79340000  0.17360000  1.0
  O  O344  1  0.71120000  0.87900000  0.61690000  1.0
  O  O345  1  0.28880000  0.12100000  0.38310000  1.0
  O  O346  1  0.28880000  0.87900000  0.38310000  1.0
  O  O347  1  0.71120000  0.12100000  0.61690000  1.0
  O  O348  1  0.21600000  0.18720000  0.42980000  1.0
  O  O349  1  0.78400000  0.81280000  0.57020000  1.0
  O  O350  1  0.78400000  0.18720000  0.57020000  1.0
  O  O351  1  0.21600000  0.81280000  0.42980000  1.0
  O  O352  1  0.72060000  0.90820000  0.43450000  1.0
  O  O353  1  0.27940000  0.09180000  0.56550000  1.0
  O  O354  1  0.27940000  0.90820000  0.56550000  1.0
  O  O355  1  0.72060000  0.09180000  0.43450000  1.0
  O  O356  1  0.23360000  0.20060000  0.77500000  1.0
  O  O357  1  0.76640000  0.79940000  0.22500000  1.0
  O  O358  1  0.76640000  0.20060000  0.22500000  1.0
  O  O359  1  0.23360000  0.79940000  0.77500000  1.0
  O  O360  1  0.23720000  0.20240000  0.30310000  1.0
  O  O361  1  0.76280000  0.79760000  0.69690000  1.0
  O  O362  1  0.76280000  0.20240000  0.69690000  1.0
  O  O363  1  0.23720000  0.79760000  0.30310000  1.0
  O  O364  1  0.73770000  0.89600000  0.30450000  1.0
  O  O365  1  0.26230000  0.10400000  0.69550000  1.0
  O  O366  1  0.26230000  0.89600000  0.69550000  1.0
  O  O367  1  0.73770000  0.10400000  0.30450000  1.0
  O  O368  1  0.00730000  0.00000000  0.16760000  1.0
  O  O369  1  0.99270000  0.00000000  0.83240000  1.0
  O  O370  1  0.51990000  0.00000000  0.24080000  1.0
  O  O371  1  0.48010000  0.00000000  0.75920000  1.0
  O  O372  1  0.61150000  0.00000000  0.73130000  1.0
  O  O373  1  0.38850000  0.00000000  0.26870000  1.0
  O  O374  1  0.11500000  0.00000000  0.09520000  1.0
  O  O375  1  0.88500000  0.00000000  0.90480000  1.0
  O  O376  1  0.12750000  0.00000000  0.80220000  1.0
  O  O377  1  0.87250000  0.00000000  0.19780000  1.0
  O  O378  1  0.65720000  0.00000000  0.14750000  1.0
  O  O379  1  0.34280000  0.00000000  0.85250000  1.0
  O  O380  1  0.67650000  0.00000000  0.60270000  1.0
  O  O381  1  0.32350000  0.00000000  0.39730000  1.0
  O  O382  1  0.22880000  0.00000000  0.62610000  1.0
  O  O383  1  0.77120000  0.00000000  0.37390000  1.0
  O  O384  1  0.00380000  0.38240000  0.18540000  1.0
  O  O385  1  0.99620000  0.61760000  0.81460000  1.0
  O  O386  1  0.99620000  0.38240000  0.81460000  1.0
  O  O387  1  0.00380000  0.61760000  0.18540000  1.0
  O  O388  1  0.00450000  0.25120000  0.81500000  1.0
  O  O389  1  0.99550000  0.74880000  0.18500000  1.0
  O  O390  1  0.99550000  0.25120000  0.18500000  1.0
  O  O391  1  0.00450000  0.74880000  0.81500000  1.0
  O  O392  1  0.00770000  0.12390000  0.21220000  1.0
  O  O393  1  0.99230000  0.87610000  0.78780000  1.0
  O  O394  1  0.99230000  0.12390000  0.78780000  1.0
  O  O395  1  0.00770000  0.87610000  0.21220000  1.0
  O  O396  1  0.04010000  0.41700000  0.70390000  1.0
  O  O397  1  0.95990000  0.58300000  0.29610000  1.0
  O  O398  1  0.95990000  0.41700000  0.29610000  1.0
  O  O399  1  0.04010000  0.58300000  0.70390000  1.0
  O  O400  1  0.04230000  0.31090000  0.08930000  1.0
  O  O401  1  0.95770000  0.68910000  0.91070000  1.0
  O  O402  1  0.95770000  0.31090000  0.91070000  1.0
  O  O403  1  0.04230000  0.68910000  0.08930000  1.0
  O  O404  1  0.04470000  0.09120000  0.89880000  1.0
  O  O405  1  0.95530000  0.90880000  0.10120000  1.0
  O  O406  1  0.95530000  0.09120000  0.10120000  1.0
  O  O407  1  0.04470000  0.90880000  0.89880000  1.0
  O  O408  1  0.04500000  0.19790000  0.71040000  1.0
  O  O409  1  0.95500000  0.80210000  0.28960000  1.0
  O  O410  1  0.95500000  0.19790000  0.28960000  1.0
  O  O411  1  0.04500000  0.80210000  0.71040000  1.0
  O  O412  1  0.04920000  0.21420000  0.29360000  1.0
  O  O413  1  0.95080000  0.78580000  0.70640000  1.0
  O  O414  1  0.95080000  0.21420000  0.70640000  1.0
  O  O415  1  0.04920000  0.78580000  0.29360000  1.0
  O  O416  1  0.04930000  0.09420000  0.09890000  1.0
  O  O417  1  0.95070000  0.90580000  0.90110000  1.0
  O  O418  1  0.95070000  0.09420000  0.90110000  1.0
  O  O419  1  0.04930000  0.90580000  0.09890000  1.0
  O  O420  1  0.05070000  0.32340000  0.91020000  1.0
  O  O421  1  0.94930000  0.67660000  0.08980000  1.0
  O  O422  1  0.94930000  0.32340000  0.08980000  1.0
  O  O423  1  0.05070000  0.67660000  0.91020000  1.0
  O  O424  1  0.05260000  0.39210000  0.30360000  1.0
  O  O425  1  0.94740000  0.60790000  0.69640000  1.0
  O  O426  1  0.94740000  0.39210000  0.69640000  1.0
  O  O427  1  0.05260000  0.60790000  0.30360000  1.0
  O  O428  1  0.08740000  0.20440000  0.93460000  1.0
  O  O429  1  0.91260000  0.79560000  0.06540000  1.0
  O  O430  1  0.91260000  0.20440000  0.06540000  1.0
  O  O431  1  0.08740000  0.79560000  0.93460000  1.0
  O  O432  1  0.61020000  0.59340000  0.00060000  1.0
  O  O433  1  0.38980000  0.40660000  0.99940000  1.0
  O  O434  1  0.38980000  0.59340000  0.99940000  1.0
  O  O435  1  0.61020000  0.40660000  0.00060000  1.0
  O  O436  1  0.11600000  0.30680000  0.01110000  1.0
  O  O437  1  0.88400000  0.69320000  0.98890000  1.0
  O  O438  1  0.88400000  0.30680000  0.98890000  1.0
  O  O439  1  0.11600000  0.69320000  0.01110000  1.0
  O  O440  1  0.11670000  0.37600000  0.77530000  1.0
  O  O441  1  0.88330000  0.62400000  0.22470000  1.0
  O  O442  1  0.88330000  0.37600000  0.22470000  1.0
  O  O443  1  0.11670000  0.62400000  0.77530000  1.0
  O  O444  1  0.61720000  0.61690000  0.74190000  1.0
  O  O445  1  0.38280000  0.38310000  0.25810000  1.0
  O  O446  1  0.38280000  0.61690000  0.25810000  1.0
  O  O447  1  0.61720000  0.38310000  0.74190000  1.0
  O  O448  1  0.11890000  0.38260000  0.12110000  1.0
  O  O449  1  0.88110000  0.61740000  0.87890000  1.0
  O  O450  1  0.88110000  0.38260000  0.87890000  1.0
  O  O451  1  0.11890000  0.61740000  0.12110000  1.0
  O  O452  1  0.12010000  0.30170000  0.29460000  1.0
  O  O453  1  0.87990000  0.69830000  0.70540000  1.0
  O  O454  1  0.87990000  0.30170000  0.70540000  1.0
  O  O455  1  0.12010000  0.69830000  0.29460000  1.0
  O  O456  1  0.12160000  0.40270000  0.64340000  1.0
  O  O457  1  0.87840000  0.59730000  0.35660000  1.0
  O  O458  1  0.87840000  0.40270000  0.35660000  1.0
  O  O459  1  0.12160000  0.59730000  0.64340000  1.0
  O  O460  1  0.12190000  0.25150000  0.13300000  1.0
  O  O461  1  0.87810000  0.74850000  0.86700000  1.0
  O  O462  1  0.87810000  0.25150000  0.86700000  1.0
  O  O463  1  0.12190000  0.74850000  0.13300000  1.0
  O  O464  1  0.12220000  0.19900000  0.63810000  1.0
  O  O465  1  0.87780000  0.80100000  0.36190000  1.0
  O  O466  1  0.87780000  0.19900000  0.36190000  1.0
  O  O467  1  0.12220000  0.80100000  0.63810000  1.0
  O  O468  1  0.12660000  0.19960000  0.37740000  1.0
  O  O469  1  0.87340000  0.80040000  0.62260000  1.0
  O  O470  1  0.87340000  0.19960000  0.62260000  1.0
  O  O471  1  0.12660000  0.80040000  0.37740000  1.0
  O  O472  1  0.12720000  0.24580000  0.76280000  1.0
  O  O473  1  0.87280000  0.75420000  0.23720000  1.0
  O  O474  1  0.87280000  0.24580000  0.23720000  1.0
  O  O475  1  0.12720000  0.75420000  0.76280000  1.0
  O  O476  1  0.13200000  0.40230000  0.38130000  1.0
  O  O477  1  0.86800000  0.59770000  0.61870000  1.0
  O  O478  1  0.86800000  0.40230000  0.61870000  1.0
  O  O479  1  0.13200000  0.59770000  0.38130000  1.0
  O  O480  1  0.13220000  0.18130000  0.24550000  1.0
  O  O481  1  0.86780000  0.81870000  0.75450000  1.0
  O  O482  1  0.86780000  0.18130000  0.75450000  1.0
  O  O483  1  0.13220000  0.81870000  0.24550000  1.0
  O  O484  1  0.13380000  0.42280000  0.24870000  1.0
  O  O485  1  0.86620000  0.57720000  0.75130000  1.0
  O  O486  1  0.86620000  0.42280000  0.75130000  1.0
  O  O487  1  0.13380000  0.57720000  0.24870000  1.0
  O  O488  1  0.63550000  0.61030000  0.87470000  1.0
  O  O489  1  0.36450000  0.38970000  0.12530000  1.0
  O  O490  1  0.36450000  0.61030000  0.12530000  1.0
  O  O491  1  0.63550000  0.38970000  0.87470000  1.0
  O  O492  1  0.13990000  0.30060000  0.88340000  1.0
  O  O493  1  0.86010000  0.69940000  0.11660000  1.0
  O  O494  1  0.86010000  0.30060000  0.11660000  1.0
  O  O495  1  0.13990000  0.69940000  0.88340000  1.0
  O  O496  1  0.64050000  0.62280000  0.12630000  1.0
  O  O497  1  0.35950000  0.37720000  0.87370000  1.0
  O  O498  1  0.35950000  0.62280000  0.87370000  1.0
  O  O499  1  0.64050000  0.37720000  0.12630000  1.0
  O  O500  1  0.14420000  0.19100000  0.51030000  1.0
  O  O501  1  0.85580000  0.80900000  0.48970000  1.0
  O  O502  1  0.85580000  0.19100000  0.48970000  1.0
  O  O503  1  0.14420000  0.80900000  0.51030000  1.0
  O  O504  1  0.14830000  0.40600000  0.51570000  1.0
  O  O505  1  0.85170000  0.59400000  0.48430000  1.0
  O  O506  1  0.85170000  0.40600000  0.48430000  1.0
  O  O507  1  0.14830000  0.59400000  0.51570000  1.0
  O  O508  1  0.16940000  0.29890000  0.44580000  1.0
  O  O509  1  0.83060000  0.70110000  0.55420000  1.0
  O  O510  1  0.83060000  0.29890000  0.55420000  1.0
  O  O511  1  0.16940000  0.70110000  0.44580000  1.0
  O  O512  1  0.69180000  0.61870000  0.60270000  1.0
  O  O513  1  0.30820000  0.38130000  0.39730000  1.0
  O  O514  1  0.30820000  0.61870000  0.39730000  1.0
  O  O515  1  0.69180000  0.38130000  0.60270000  1.0
  O  O516  1  0.20250000  0.32270000  0.79150000  1.0
  O  O517  1  0.79750000  0.67730000  0.20850000  1.0
  O  O518  1  0.79750000  0.32270000  0.20850000  1.0
  O  O519  1  0.20250000  0.67730000  0.79150000  1.0
  O  O520  1  0.70260000  0.57800000  0.79140000  1.0
  O  O521  1  0.29740000  0.42200000  0.20860000  1.0
  O  O522  1  0.29740000  0.57800000  0.20860000  1.0
  O  O523  1  0.70260000  0.42200000  0.79140000  1.0
  O  O524  1  0.20440000  0.24890000  0.59920000  1.0
  O  O525  1  0.79560000  0.75110000  0.40080000  1.0
  O  O526  1  0.79560000  0.24890000  0.40080000  1.0
  O  O527  1  0.20440000  0.75110000  0.59920000  1.0
  O  O528  1  0.20710000  0.39140000  0.17560000  1.0
  O  O529  1  0.79290000  0.60860000  0.82440000  1.0
  O  O530  1  0.79290000  0.39140000  0.82440000  1.0
  O  O531  1  0.20710000  0.60860000  0.17560000  1.0
  O  O532  1  0.70720000  0.70660000  0.17360000  1.0
  O  O533  1  0.29280000  0.29340000  0.82640000  1.0
  O  O534  1  0.29280000  0.70660000  0.82640000  1.0
  O  O535  1  0.70720000  0.29340000  0.17360000  1.0
  O  O536  1  0.21120000  0.37900000  0.61690000  1.0
  O  O537  1  0.78880000  0.62100000  0.38310000  1.0
  O  O538  1  0.78880000  0.37900000  0.38310000  1.0
  O  O539  1  0.21120000  0.62100000  0.61690000  1.0
  O  O540  1  0.71600000  0.68720000  0.42980000  1.0
  O  O541  1  0.28400000  0.31280000  0.57020000  1.0
  O  O542  1  0.28400000  0.68720000  0.57020000  1.0
  O  O543  1  0.71600000  0.31280000  0.42980000  1.0
  O  O544  1  0.22060000  0.40820000  0.43450000  1.0
  O  O545  1  0.77940000  0.59180000  0.56550000  1.0
  O  O546  1  0.77940000  0.40820000  0.56550000  1.0
  O  O547  1  0.22060000  0.59180000  0.43450000  1.0
  O  O548  1  0.73360000  0.70060000  0.77500000  1.0
  O  O549  1  0.26640000  0.29940000  0.22500000  1.0
  O  O550  1  0.26640000  0.70060000  0.22500000  1.0
  O  O551  1  0.73360000  0.29940000  0.77500000  1.0
  O  O552  1  0.73720000  0.70240000  0.30310000  1.0
  O  O553  1  0.26280000  0.29760000  0.69690000  1.0
  O  O554  1  0.26280000  0.70240000  0.69690000  1.0
  O  O555  1  0.73720000  0.29760000  0.30310000  1.0
  O  O556  1  0.23770000  0.39600000  0.30450000  1.0
  O  O557  1  0.76230000  0.60400000  0.69550000  1.0
  O  O558  1  0.76230000  0.39600000  0.69550000  1.0
  O  O559  1  0.23770000  0.60400000  0.30450000  1.0
  O  O560  1  0.50730000  0.50000000  0.16760000  1.0
  O  O561  1  0.49270000  0.50000000  0.83240000  1.0
  O  O562  1  0.01990000  0.50000000  0.24080000  1.0
  O  O563  1  0.98010000  0.50000000  0.75920000  1.0
  O  O564  1  0.11150000  0.50000000  0.73130000  1.0
  O  O565  1  0.88850000  0.50000000  0.26870000  1.0
  O  O566  1  0.61500000  0.50000000  0.09520000  1.0
  O  O567  1  0.38500000  0.50000000  0.90480000  1.0
  O  O568  1  0.62750000  0.50000000  0.80220000  1.0
  O  O569  1  0.37250000  0.50000000  0.19780000  1.0
  O  O570  1  0.15720000  0.50000000  0.14750000  1.0
  O  O571  1  0.84280000  0.50000000  0.85250000  1.0
  O  O572  1  0.17650000  0.50000000  0.60270000  1.0
  O  O573  1  0.82350000  0.50000000  0.39730000  1.0
  O  O574  1  0.72880000  0.50000000  0.62610000  1.0
  O  O575  1  0.27120000  0.50000000  0.37390000  1.0
