# generated using pymatgen
data_SiO2
_symmetry_space_group_name_H-M   C2/m
_cell_length_a   27.84500000
_cell_length_b   20.01500000
_cell_length_c   19.59599977
_cell_angle_alpha   90.00000000
_cell_angle_beta   93.19999942
_cell_angle_gamma   90.00000000
_symmetry_Int_Tables_number   12
_chemical_formula_structural   SiO2
_chemical_formula_sum   'Si192 O384'
_cell_volume   10904.16831774
_cell_formula_units_Z   192
loop_
 _symmetry_equiv_pos_site_id
 _symmetry_equiv_pos_as_xyz
  1  'x, y, z'
  2  '-x, -y, -z'
  3  '-x, y, -z'
  4  'x, -y, z'
  5  'x+1/2, y+1/2, z'
  6  '-x+1/2, -y+1/2, -z'
  7  '-x+1/2, y+1/2, -z'
  8  'x+1/2, -y+1/2, z'
loop_
 _atom_site_type_symbol
 _atom_site_label
 _atom_site_symmetry_multiplicity
 _atom_site_fract_x
 _atom_site_fract_y
 _atom_site_fract_z
 _atom_site_occupancy
  Si  Si0  8  0.00210000  0.19690000  0.24540000  1
  Si  Si1  8  0.00220000  0.31690000  0.86190000  1
  Si  Si2  8  0.00480000  0.07740000  0.14510000  1
  Si  Si3  8  0.00880000  0.42270000  0.25640000  1
  Si  Si4  8  0.09430000  0.12500000  0.92730000  1
  Si  Si5  8  0.09770000  0.42360000  0.71330000  1
  Si  Si6  8  0.09870000  0.28330000  0.93510000  1
  Si  Si7  8  0.10000000  0.31290000  0.08850000  1
  Si  Si8  8  0.10260000  0.19000000  0.71330000  1
  Si  Si9  8  0.10360000  0.07760000  0.08010000  1
  Si  Si10  8  0.10650000  0.22400000  0.30290000  1
  Si  Si11  8  0.10980000  0.37970000  0.30730000  1
  Si  Si12  8  0.14570000  0.07640000  0.80250000  1
  Si  Si13  8  0.14630000  0.31150000  0.80300000  1
  Si  Si14  8  0.15050000  0.19020000  0.16950000  1
  Si  Si15  8  0.15410000  0.42390000  0.17340000  1
  Si  Si16  8  0.16380000  0.21910000  0.44000000  1
  Si  Si17  8  0.16400000  0.42180000  0.59430000  1
  Si  Si18  8  0.16580000  0.18960000  0.58840000  1
  Si  Si19  8  0.16750000  0.37920000  0.44470000  1
  Si  Si20  8  0.24020000  0.30940000  0.62040000  1
  Si  Si21  8  0.24080000  0.07850000  0.62210000  1
  Si  Si22  8  0.24770000  0.12280000  0.77150000  1
  Si  Si23  8  0.24820000  0.27830000  0.77280000  1
  O  O24  8  0.00380000  0.38240000  0.18540000  1
  O  O25  8  0.00450000  0.25120000  0.81500000  1
  O  O26  8  0.00770000  0.12390000  0.21220000  1
  O  O27  8  0.04010000  0.41700000  0.70390000  1
  O  O28  8  0.04230000  0.31090000  0.08930000  1
  O  O29  8  0.04470000  0.09120000  0.89880000  1
  O  O30  8  0.04500000  0.19790000  0.71040000  1
  O  O31  8  0.04920000  0.21420000  0.29360000  1
  O  O32  8  0.04930000  0.09420000  0.09890000  1
  O  O33  8  0.05070000  0.32340000  0.91020000  1
  O  O34  8  0.05260000  0.39210000  0.30360000  1
  O  O35  8  0.08740000  0.20440000  0.93460000  1
  O  O36  8  0.11020000  0.09340000  0.00060000  1
  O  O37  8  0.11600000  0.30680000  0.01110000  1
  O  O38  8  0.11670000  0.37600000  0.77530000  1
  O  O39  8  0.11720000  0.11690000  0.74190000  1
  O  O40  8  0.11890000  0.38260000  0.12110000  1
  O  O41  8  0.12010000  0.30170000  0.29460000  1
  O  O42  8  0.12160000  0.40270000  0.64340000  1
  O  O43  8  0.12190000  0.25150000  0.13300000  1
  O  O44  8  0.12220000  0.19900000  0.63810000  1
  O  O45  8  0.12660000  0.19960000  0.37740000  1
  O  O46  8  0.12720000  0.24580000  0.76280000  1
  O  O47  8  0.13200000  0.40230000  0.38130000  1
  O  O48  8  0.13220000  0.18130000  0.24550000  1
  O  O49  8  0.13380000  0.42280000  0.24870000  1
  O  O50  8  0.13550000  0.11030000  0.87470000  1
  O  O51  8  0.13990000  0.30060000  0.88340000  1
  O  O52  8  0.14050000  0.12280000  0.12630000  1
  O  O53  8  0.14420000  0.19100000  0.51030000  1
  O  O54  8  0.14830000  0.40600000  0.51570000  1
  O  O55  8  0.16940000  0.29890000  0.44580000  1
  O  O56  8  0.19180000  0.11870000  0.60270000  1
  O  O57  8  0.20250000  0.32270000  0.79150000  1
  O  O58  8  0.20260000  0.07800000  0.79140000  1
  O  O59  8  0.20440000  0.24890000  0.59920000  1
  O  O60  8  0.20710000  0.39140000  0.17560000  1
  O  O61  8  0.20720000  0.20660000  0.17360000  1
  O  O62  8  0.21120000  0.37900000  0.61690000  1
  O  O63  8  0.21600000  0.18720000  0.42980000  1
  O  O64  8  0.22060000  0.40820000  0.43450000  1
  O  O65  8  0.23360000  0.20060000  0.77500000  1
  O  O66  8  0.23720000  0.20240000  0.30310000  1
  O  O67  8  0.23770000  0.39600000  0.30450000  1
  O  O68  4  0.00730000  0.00000000  0.16760000  1
  O  O69  4  0.01990000  0.50000000  0.24080000  1
  O  O70  4  0.11150000  0.50000000  0.73130000  1
  O  O71  4  0.11500000  0.00000000  0.09520000  1
  O  O72  4  0.12750000  0.00000000  0.80220000  1
  O  O73  4  0.15720000  0.50000000  0.14750000  1
  O  O74  4  0.17650000  0.50000000  0.60270000  1
  O  O75  4  0.22880000  0.00000000  0.62610000  1
