# generated using pymatgen
data_SiO2
_symmetry_space_group_name_H-M   'P 1'
_cell_length_a   21.98932000
_cell_length_b   38.76387000
_cell_length_c   12.71775000
_cell_angle_alpha   90.00000000
_cell_angle_beta   90.00000000
_cell_angle_gamma   90.00000000
_symmetry_Int_Tables_number   1
_chemical_formula_structural   SiO2
_chemical_formula_sum   'Si176 O352'
_cell_volume   10840.49744385
_cell_formula_units_Z   176
loop_
 _symmetry_equiv_pos_site_id
 _symmetry_equiv_pos_as_xyz
  1  'x, y, z'
loop_
 _atom_site_type_symbol
 _atom_site_label
 _atom_site_symmetry_multiplicity
 _atom_site_fract_x
 _atom_site_fract_y
 _atom_site_fract_z
 _atom_site_occupancy
  Si  Si0  1  0.14477000  0.33960000  0.80999000  1.0
  Si  Si1  1  0.85523000  0.33960000  0.19001000  1.0
  Si  Si2  1  0.14477000  0.33960000  0.19001000  1.0
  Si  Si3  1  0.85523000  0.33960000  0.80999000  1.0
  Si  Si4  1  0.14377000  0.46737000  0.80898000  1.0
  Si  Si5  1  0.85623000  0.46737000  0.19102000  1.0
  Si  Si6  1  0.14377000  0.46737000  0.19102000  1.0
  Si  Si7  1  0.85623000  0.46737000  0.80898000  1.0
  Si  Si8  1  0.06961000  0.36324000  0.62021000  1.0
  Si  Si9  1  0.93039000  0.36324000  0.37979000  1.0
  Si  Si10  1  0.06961000  0.36324000  0.37979000  1.0
  Si  Si11  1  0.93039000  0.36324000  0.62021000  1.0
  Si  Si12  1  0.22256000  0.40330000  0.87629000  1.0
  Si  Si13  1  0.77744000  0.40330000  0.12371000  1.0
  Si  Si14  1  0.22256000  0.40330000  0.12371000  1.0
  Si  Si15  1  0.77744000  0.40330000  0.87629000  1.0
  Si  Si16  1  0.23082000  0.28151000  0.87715000  1.0
  Si  Si17  1  0.76918000  0.28151000  0.12285000  1.0
  Si  Si18  1  0.23082000  0.28151000  0.12285000  1.0
  Si  Si19  1  0.76918000  0.28151000  0.87715000  1.0
  Si  Si20  1  0.06930000  0.44355000  0.62023000  1.0
  Si  Si21  1  0.93070000  0.44355000  0.37977000  1.0
  Si  Si22  1  0.06930000  0.44355000  0.37977000  1.0
  Si  Si23  1  0.93070000  0.44355000  0.62023000  1.0
  Si  Si24  1  0.73352000  0.02272000  0.88092000  1.0
  Si  Si25  1  0.26648000  0.02272000  0.11908000  1.0
  Si  Si26  1  0.73352000  0.02272000  0.11908000  1.0
  Si  Si27  1  0.26648000  0.02272000  0.88092000  1.0
  Si  Si28  1  0.35693000  0.42637000  0.88027000  1.0
  Si  Si29  1  0.64307000  0.42637000  0.11973000  1.0
  Si  Si30  1  0.35693000  0.42637000  0.11973000  1.0
  Si  Si31  1  0.64307000  0.42637000  0.88027000  1.0
  Si  Si32  1  0.36360000  0.29779000  0.80453000  1.0
  Si  Si33  1  0.63640000  0.29779000  0.19547000  1.0
  Si  Si34  1  0.36360000  0.29779000  0.19547000  1.0
  Si  Si35  1  0.63640000  0.29779000  0.80453000  1.0
  Si  Si36  1  0.23506000  0.20006000  0.87705000  1.0
  Si  Si37  1  0.76494000  0.20006000  0.12295000  1.0
  Si  Si38  1  0.23506000  0.20006000  0.12295000  1.0
  Si  Si39  1  0.76494000  0.20006000  0.87705000  1.0
  Si  Si40  1  0.86293000  0.00060000  0.80236000  1.0
  Si  Si41  1  0.13707000  0.00060000  0.19764000  1.0
  Si  Si42  1  0.86293000  0.00060000  0.19764000  1.0
  Si  Si43  1  0.13707000  0.00060000  0.80236000  1.0
  Si  Si44  1  0.73948000  0.10436000  0.88039000  1.0
  Si  Si45  1  0.26052000  0.10436000  0.11961000  1.0
  Si  Si46  1  0.73948000  0.10436000  0.11961000  1.0
  Si  Si47  1  0.26052000  0.10436000  0.88039000  1.0
  Si  Si48  1  0.43138000  0.36091000  0.87779000  1.0
  Si  Si49  1  0.56862000  0.36091000  0.12221000  1.0
  Si  Si50  1  0.43138000  0.36091000  0.12221000  1.0
  Si  Si51  1  0.56862000  0.36091000  0.87779000  1.0
  Si  Si52  1  0.43173000  0.26241000  0.61984000  1.0
  Si  Si53  1  0.56827000  0.26241000  0.38016000  1.0
  Si  Si54  1  0.43173000  0.26241000  0.38016000  1.0
  Si  Si55  1  0.56827000  0.26241000  0.61984000  1.0
  Si  Si56  1  0.34740000  0.16077000  0.80469000  1.0
  Si  Si57  1  0.65260000  0.16077000  0.19531000  1.0
  Si  Si58  1  0.34740000  0.16077000  0.19531000  1.0
  Si  Si59  1  0.65260000  0.16077000  0.80469000  1.0
  Si  Si60  1  0.14718000  0.14129000  0.80914000  1.0
  Si  Si61  1  0.85282000  0.14129000  0.19086000  1.0
  Si  Si62  1  0.14718000  0.14129000  0.19086000  1.0
  Si  Si63  1  0.85282000  0.14129000  0.80914000  1.0
  Si  Si64  1  0.93097000  0.03879000  0.62114000  1.0
  Si  Si65  1  0.06903000  0.03879000  0.37886000  1.0
  Si  Si66  1  0.93097000  0.03879000  0.37886000  1.0
  Si  Si67  1  0.06903000  0.03879000  0.62114000  1.0
  Si  Si68  1  0.43117000  0.18099000  0.61984000  1.0
  Si  Si69  1  0.56883000  0.18099000  0.38016000  1.0
  Si  Si70  1  0.43117000  0.18099000  0.38016000  1.0
  Si  Si71  1  0.56883000  0.18099000  0.61984000  1.0
  Si  Si72  1  0.07014000  0.11861000  0.62074000  1.0
  Si  Si73  1  0.92986000  0.11861000  0.37926000  1.0
  Si  Si74  1  0.07014000  0.11861000  0.37926000  1.0
  Si  Si75  1  0.92986000  0.11861000  0.62074000  1.0
  Si  Si76  1  0.07254000  0.36681000  0.00000000  1.0
  Si  Si77  1  0.92746000  0.36681000  0.00000000  1.0
  Si  Si78  1  0.07243000  0.44192000  0.00000000  1.0
  Si  Si79  1  0.92757000  0.44192000  0.00000000  1.0
  Si  Si80  1  0.43067000  0.26258000  0.00000000  1.0
  Si  Si81  1  0.56933000  0.26258000  0.00000000  1.0
  Si  Si82  1  0.92693000  0.03564000  0.00000000  1.0
  Si  Si83  1  0.07307000  0.03564000  0.00000000  1.0
  Si  Si84  1  0.43069000  0.17963000  0.00000000  1.0
  Si  Si85  1  0.56931000  0.17963000  0.00000000  1.0
  Si  Si86  1  0.07306000  0.11374000  0.00000000  1.0
  Si  Si87  1  0.92694000  0.11374000  0.00000000  1.0
  Si  Si88  1  0.64477000  0.83960000  0.80999000  1.0
  Si  Si89  1  0.35523000  0.83960000  0.19001000  1.0
  Si  Si90  1  0.64477000  0.83960000  0.19001000  1.0
  Si  Si91  1  0.35523000  0.83960000  0.80999000  1.0
  Si  Si92  1  0.64377000  0.96737000  0.80898000  1.0
  Si  Si93  1  0.35623000  0.96737000  0.19102000  1.0
  Si  Si94  1  0.64377000  0.96737000  0.19102000  1.0
  Si  Si95  1  0.35623000  0.96737000  0.80898000  1.0
  Si  Si96  1  0.56961000  0.86324000  0.62021000  1.0
  Si  Si97  1  0.43039000  0.86324000  0.37979000  1.0
  Si  Si98  1  0.56961000  0.86324000  0.37979000  1.0
  Si  Si99  1  0.43039000  0.86324000  0.62021000  1.0
  Si  Si100  1  0.72256000  0.90330000  0.87629000  1.0
  Si  Si101  1  0.27744000  0.90330000  0.12371000  1.0
  Si  Si102  1  0.72256000  0.90330000  0.12371000  1.0
  Si  Si103  1  0.27744000  0.90330000  0.87629000  1.0
  Si  Si104  1  0.73082000  0.78151000  0.87715000  1.0
  Si  Si105  1  0.26918000  0.78151000  0.12285000  1.0
  Si  Si106  1  0.73082000  0.78151000  0.12285000  1.0
  Si  Si107  1  0.26918000  0.78151000  0.87715000  1.0
  Si  Si108  1  0.56930000  0.94355000  0.62023000  1.0
  Si  Si109  1  0.43070000  0.94355000  0.37977000  1.0
  Si  Si110  1  0.56930000  0.94355000  0.37977000  1.0
  Si  Si111  1  0.43070000  0.94355000  0.62023000  1.0
  Si  Si112  1  0.23352000  0.52272000  0.88092000  1.0
  Si  Si113  1  0.76648000  0.52272000  0.11908000  1.0
  Si  Si114  1  0.23352000  0.52272000  0.11908000  1.0
  Si  Si115  1  0.76648000  0.52272000  0.88092000  1.0
  Si  Si116  1  0.85693000  0.92637000  0.88027000  1.0
  Si  Si117  1  0.14307000  0.92637000  0.11973000  1.0
  Si  Si118  1  0.85693000  0.92637000  0.11973000  1.0
  Si  Si119  1  0.14307000  0.92637000  0.88027000  1.0
  Si  Si120  1  0.86360000  0.79779000  0.80453000  1.0
  Si  Si121  1  0.13640000  0.79779000  0.19547000  1.0
  Si  Si122  1  0.86360000  0.79779000  0.19547000  1.0
  Si  Si123  1  0.13640000  0.79779000  0.80453000  1.0
  Si  Si124  1  0.73506000  0.70006000  0.87705000  1.0
  Si  Si125  1  0.26494000  0.70006000  0.12295000  1.0
  Si  Si126  1  0.73506000  0.70006000  0.12295000  1.0
  Si  Si127  1  0.26494000  0.70006000  0.87705000  1.0
  Si  Si128  1  0.36293000  0.50060000  0.80236000  1.0
  Si  Si129  1  0.63707000  0.50060000  0.19764000  1.0
  Si  Si130  1  0.36293000  0.50060000  0.19764000  1.0
  Si  Si131  1  0.63707000  0.50060000  0.80236000  1.0
  Si  Si132  1  0.23948000  0.60436000  0.88039000  1.0
  Si  Si133  1  0.76052000  0.60436000  0.11961000  1.0
  Si  Si134  1  0.23948000  0.60436000  0.11961000  1.0
  Si  Si135  1  0.76052000  0.60436000  0.88039000  1.0
  Si  Si136  1  0.93138000  0.86091000  0.87779000  1.0
  Si  Si137  1  0.06862000  0.86091000  0.12221000  1.0
  Si  Si138  1  0.93138000  0.86091000  0.12221000  1.0
  Si  Si139  1  0.06862000  0.86091000  0.87779000  1.0
  Si  Si140  1  0.93173000  0.76241000  0.61984000  1.0
  Si  Si141  1  0.06827000  0.76241000  0.38016000  1.0
  Si  Si142  1  0.93173000  0.76241000  0.38016000  1.0
  Si  Si143  1  0.06827000  0.76241000  0.61984000  1.0
  Si  Si144  1  0.84740000  0.66077000  0.80469000  1.0
  Si  Si145  1  0.15260000  0.66077000  0.19531000  1.0
  Si  Si146  1  0.84740000  0.66077000  0.19531000  1.0
  Si  Si147  1  0.15260000  0.66077000  0.80469000  1.0
  Si  Si148  1  0.64718000  0.64129000  0.80914000  1.0
  Si  Si149  1  0.35282000  0.64129000  0.19086000  1.0
  Si  Si150  1  0.64718000  0.64129000  0.19086000  1.0
  Si  Si151  1  0.35282000  0.64129000  0.80914000  1.0
  Si  Si152  1  0.43097000  0.53879000  0.62114000  1.0
  Si  Si153  1  0.56903000  0.53879000  0.37886000  1.0
  Si  Si154  1  0.43097000  0.53879000  0.37886000  1.0
  Si  Si155  1  0.56903000  0.53879000  0.62114000  1.0
  Si  Si156  1  0.93117000  0.68099000  0.61984000  1.0
  Si  Si157  1  0.06883000  0.68099000  0.38016000  1.0
  Si  Si158  1  0.93117000  0.68099000  0.38016000  1.0
  Si  Si159  1  0.06883000  0.68099000  0.61984000  1.0
  Si  Si160  1  0.57014000  0.61861000  0.62074000  1.0
  Si  Si161  1  0.42986000  0.61861000  0.37926000  1.0
  Si  Si162  1  0.57014000  0.61861000  0.37926000  1.0
  Si  Si163  1  0.42986000  0.61861000  0.62074000  1.0
  Si  Si164  1  0.57254000  0.86681000  0.00000000  1.0
  Si  Si165  1  0.42746000  0.86681000  0.00000000  1.0
  Si  Si166  1  0.57243000  0.94192000  0.00000000  1.0
  Si  Si167  1  0.42757000  0.94192000  0.00000000  1.0
  Si  Si168  1  0.93067000  0.76258000  0.00000000  1.0
  Si  Si169  1  0.06933000  0.76258000  0.00000000  1.0
  Si  Si170  1  0.42693000  0.53564000  0.00000000  1.0
  Si  Si171  1  0.57307000  0.53564000  0.00000000  1.0
  Si  Si172  1  0.93069000  0.67963000  0.00000000  1.0
  Si  Si173  1  0.06931000  0.67963000  0.00000000  1.0
  Si  Si174  1  0.57306000  0.61374000  0.00000000  1.0
  Si  Si175  1  0.42694000  0.61374000  0.00000000  1.0
  O  O176  1  0.17355000  0.30187000  0.82831000  1.0
  O  O177  1  0.82645000  0.30187000  0.17169000  1.0
  O  O178  1  0.17355000  0.30187000  0.17169000  1.0
  O  O179  1  0.82645000  0.30187000  0.82831000  1.0
  O  O180  1  0.09243000  0.34579000  0.89650000  1.0
  O  O181  1  0.90757000  0.34579000  0.10350000  1.0
  O  O182  1  0.09243000  0.34579000  0.10350000  1.0
  O  O183  1  0.90757000  0.34579000  0.89650000  1.0
  O  O184  1  0.11456000  0.34140000  0.69476000  1.0
  O  O185  1  0.88544000  0.34140000  0.30524000  1.0
  O  O186  1  0.11456000  0.34140000  0.30524000  1.0
  O  O187  1  0.88544000  0.34140000  0.69476000  1.0
  O  O188  1  0.19641000  0.36875000  0.82247000  1.0
  O  O189  1  0.80359000  0.36875000  0.17753000  1.0
  O  O190  1  0.19641000  0.36875000  0.17753000  1.0
  O  O191  1  0.80359000  0.36875000  0.82247000  1.0
  O  O192  1  0.11384000  0.46608000  0.69352000  1.0
  O  O193  1  0.88616000  0.46608000  0.30648000  1.0
  O  O194  1  0.11384000  0.46608000  0.30648000  1.0
  O  O195  1  0.88616000  0.46608000  0.69352000  1.0
  O  O196  1  0.09135000  0.46315000  0.89637000  1.0
  O  O197  1  0.90865000  0.46315000  0.10363000  1.0
  O  O198  1  0.09135000  0.46315000  0.10363000  1.0
  O  O199  1  0.90865000  0.46315000  0.89637000  1.0
  O  O200  1  0.67646000  0.00413000  0.82551000  1.0
  O  O201  1  0.32354000  0.00413000  0.17449000  1.0
  O  O202  1  0.67646000  0.00413000  0.17449000  1.0
  O  O203  1  0.32354000  0.00413000  0.82551000  1.0
  O  O204  1  0.19217000  0.43652000  0.82139000  1.0
  O  O205  1  0.80783000  0.43652000  0.17861000  1.0
  O  O206  1  0.19217000  0.43652000  0.17861000  1.0
  O  O207  1  0.80783000  0.43652000  0.82139000  1.0
  O  O208  1  0.00000000  0.35782000  0.65595000  1.0
  O  O209  1  0.00000000  0.35782000  0.34405000  1.0
  O  O210  1  0.07748000  0.35095000  0.50000000  1.0
  O  O211  1  0.92252000  0.35095000  0.50000000  1.0
  O  O212  1  0.08734000  0.40343000  0.62924000  1.0
  O  O213  1  0.91266000  0.40343000  0.37076000  1.0
  O  O214  1  0.08734000  0.40343000  0.37076000  1.0
  O  O215  1  0.91266000  0.40343000  0.62924000  1.0
  O  O216  1  0.29497000  0.40546000  0.85834000  1.0
  O  O217  1  0.70503000  0.40546000  0.14166000  1.0
  O  O218  1  0.29497000  0.40546000  0.14166000  1.0
  O  O219  1  0.70503000  0.40546000  0.85834000  1.0
  O  O220  1  0.20732000  0.40321000  0.00000000  1.0
  O  O221  1  0.79268000  0.40321000  0.00000000  1.0
  O  O222  1  0.29102000  0.29429000  0.81658000  1.0
  O  O223  1  0.70898000  0.29429000  0.18342000  1.0
  O  O224  1  0.29102000  0.29429000  0.18342000  1.0
  O  O225  1  0.70898000  0.29429000  0.81658000  1.0
  O  O226  1  0.22161000  0.24061000  0.86258000  1.0
  O  O227  1  0.77839000  0.24061000  0.13742000  1.0
  O  O228  1  0.22161000  0.24061000  0.13742000  1.0
  O  O229  1  0.77839000  0.24061000  0.86258000  1.0
  O  O230  1  0.23692000  0.29079000  0.00000000  1.0
  O  O231  1  0.76308000  0.29079000  0.00000000  1.0
  O  O232  1  0.07605000  0.45597000  0.50000000  1.0
  O  O233  1  0.92395000  0.45597000  0.50000000  1.0
  O  O234  1  0.00000000  0.44878000  0.65791000  1.0
  O  O235  1  0.00000000  0.44878000  0.34209000  1.0
  O  O236  1  0.72370000  0.06384000  0.88124000  1.0
  O  O237  1  0.27630000  0.06384000  0.11876000  1.0
  O  O238  1  0.72370000  0.06384000  0.11876000  1.0
  O  O239  1  0.27630000  0.06384000  0.88124000  1.0
  O  O240  1  0.74042000  0.00917000  0.00000000  1.0
  O  O241  1  0.25958000  0.00917000  0.00000000  1.0
  O  O242  1  0.79402000  0.01390000  0.81517000  1.0
  O  O243  1  0.20598000  0.01390000  0.18483000  1.0
  O  O244  1  0.79402000  0.01390000  0.18483000  1.0
  O  O245  1  0.20598000  0.01390000  0.81517000  1.0
  O  O246  1  0.41408000  0.40099000  0.86330000  1.0
  O  O247  1  0.58592000  0.40099000  0.13670000  1.0
  O  O248  1  0.41408000  0.40099000  0.13670000  1.0
  O  O249  1  0.58592000  0.40099000  0.86330000  1.0
  O  O250  1  0.35683000  0.43989000  0.00000000  1.0
  O  O251  1  0.64317000  0.43989000  0.00000000  1.0
  O  O252  1  0.36308000  0.45907000  0.80298000  1.0
  O  O253  1  0.63692000  0.45907000  0.19702000  1.0
  O  O254  1  0.36308000  0.45907000  0.19702000  1.0
  O  O255  1  0.63692000  0.45907000  0.80298000  1.0
  O  O256  1  0.38428000  0.33756000  0.81193000  1.0
  O  O257  1  0.61572000  0.33756000  0.18807000  1.0
  O  O258  1  0.38428000  0.33756000  0.18807000  1.0
  O  O259  1  0.61572000  0.33756000  0.81193000  1.0
  O  O260  1  0.39633000  0.27614000  0.89634000  1.0
  O  O261  1  0.60367000  0.27614000  0.10366000  1.0
  O  O262  1  0.39633000  0.27614000  0.10366000  1.0
  O  O263  1  0.60367000  0.27614000  0.89634000  1.0
  O  O264  1  0.38348000  0.28289000  0.69153000  1.0
  O  O265  1  0.61652000  0.28289000  0.30847000  1.0
  O  O266  1  0.38348000  0.28289000  0.30847000  1.0
  O  O267  1  0.61652000  0.28289000  0.69153000  1.0
  O  O268  1  0.29635000  0.19039000  0.81408000  1.0
  O  O269  1  0.70365000  0.19039000  0.18592000  1.0
  O  O270  1  0.29635000  0.19039000  0.18592000  1.0
  O  O271  1  0.70365000  0.19039000  0.81408000  1.0
  O  O272  1  0.17912000  0.17803000  0.83032000  1.0
  O  O273  1  0.82088000  0.17803000  0.16968000  1.0
  O  O274  1  0.17912000  0.17803000  0.16968000  1.0
  O  O275  1  0.82088000  0.17803000  0.83032000  1.0
  O  O276  1  0.24355000  0.19143000  0.00000000  1.0
  O  O277  1  0.75645000  0.19143000  0.00000000  1.0
  O  O278  1  0.88780000  0.01435000  0.69097000  1.0
  O  O279  1  0.11220000  0.01435000  0.30903000  1.0
  O  O280  1  0.88780000  0.01435000  0.30903000  1.0
  O  O281  1  0.11220000  0.01435000  0.69097000  1.0
  O  O282  1  0.90392000  0.01555000  0.89666000  1.0
  O  O283  1  0.09608000  0.01555000  0.10334000  1.0
  O  O284  1  0.90392000  0.01555000  0.10334000  1.0
  O  O285  1  0.09608000  0.01555000  0.89666000  1.0
  O  O286  1  0.80207000  0.11146000  0.81826000  1.0
  O  O287  1  0.19793000  0.11146000  0.18174000  1.0
  O  O288  1  0.80207000  0.11146000  0.18174000  1.0
  O  O289  1  0.19793000  0.11146000  0.81826000  1.0
  O  O290  1  0.74446000  0.11776000  0.00000000  1.0
  O  O291  1  0.25554000  0.11776000  0.00000000  1.0
  O  O292  1  0.68514000  0.12389000  0.81988000  1.0
  O  O293  1  0.31486000  0.12389000  0.18012000  1.0
  O  O294  1  0.68514000  0.12389000  0.18012000  1.0
  O  O295  1  0.31486000  0.12389000  0.81988000  1.0
  O  O296  1  0.42653000  0.35050000  0.00000000  1.0
  O  O297  1  0.57347000  0.35050000  0.00000000  1.0
  O  O298  1  0.50000000  0.35450000  0.83796000  1.0
  O  O299  1  0.50000000  0.35450000  0.16204000  1.0
  O  O300  1  0.42566000  0.27537000  0.50000000  1.0
  O  O301  1  0.57434000  0.27537000  0.50000000  1.0
  O  O302  1  0.41755000  0.22174000  0.62537000  1.0
  O  O303  1  0.58245000  0.22174000  0.37463000  1.0
  O  O304  1  0.41755000  0.22174000  0.37463000  1.0
  O  O305  1  0.58245000  0.22174000  0.62537000  1.0
  O  O306  1  0.50000000  0.26946000  0.66041000  1.0
  O  O307  1  0.50000000  0.26946000  0.33959000  1.0
  O  O308  1  0.38224000  0.16170000  0.69341000  1.0
  O  O309  1  0.61776000  0.16170000  0.30659000  1.0
  O  O310  1  0.38224000  0.16170000  0.30659000  1.0
  O  O311  1  0.61776000  0.16170000  0.69341000  1.0
  O  O312  1  0.39700000  0.16538000  0.89659000  1.0
  O  O313  1  0.60300000  0.16538000  0.10341000  1.0
  O  O314  1  0.39700000  0.16538000  0.10341000  1.0
  O  O315  1  0.60300000  0.16538000  0.89659000  1.0
  O  O316  1  0.11459000  0.14069000  0.69572000  1.0
  O  O317  1  0.88541000  0.14069000  0.30428000  1.0
  O  O318  1  0.11459000  0.14069000  0.30428000  1.0
  O  O319  1  0.88541000  0.14069000  0.69572000  1.0
  O  O320  1  0.09605000  0.13411000  0.89711000  1.0
  O  O321  1  0.90395000  0.13411000  0.10289000  1.0
  O  O322  1  0.09605000  0.13411000  0.10289000  1.0
  O  O323  1  0.90395000  0.13411000  0.89711000  1.0
  O  O324  1  0.00000000  0.03444000  0.66122000  1.0
  O  O325  1  0.00000000  0.03444000  0.33878000  1.0
  O  O326  1  0.92648000  0.02706000  0.50000000  1.0
  O  O327  1  0.07352000  0.02706000  0.50000000  1.0
  O  O328  1  0.91126000  0.07860000  0.63226000  1.0
  O  O329  1  0.08874000  0.07860000  0.36774000  1.0
  O  O330  1  0.91126000  0.07860000  0.36774000  1.0
  O  O331  1  0.08874000  0.07860000  0.63226000  1.0
  O  O332  1  0.50000000  0.17370000  0.65723000  1.0
  O  O333  1  0.50000000  0.17370000  0.34277000  1.0
  O  O334  1  0.42326000  0.16827000  0.50000000  1.0
  O  O335  1  0.57674000  0.16827000  0.50000000  1.0
  O  O336  1  0.07901000  0.13016000  0.50000000  1.0
  O  O337  1  0.92099000  0.13016000  0.50000000  1.0
  O  O338  1  0.00000000  0.12375000  0.65382000  1.0
  O  O339  1  0.00000000  0.12375000  0.34618000  1.0
  O  O340  1  0.00000000  0.37191000  0.00000000  1.0
  O  O341  1  0.10396000  0.40438000  0.00000000  1.0
  O  O342  1  0.89604000  0.40438000  0.00000000  1.0
  O  O343  1  0.00000000  0.43637000  0.00000000  1.0
  O  O344  1  0.50000000  0.27595000  0.00000000  1.0
  O  O345  1  0.42990000  0.22109000  0.00000000  1.0
  O  O346  1  0.57010000  0.22109000  0.00000000  1.0
  O  O347  1  0.00000000  0.03638000  0.00000000  1.0
  O  O348  1  0.90186000  0.07469000  0.00000000  1.0
  O  O349  1  0.09814000  0.07469000  0.00000000  1.0
  O  O350  1  0.50000000  0.16622000  0.00000000  1.0
  O  O351  1  0.00000000  0.11300000  0.00000000  1.0
  O  O352  1  0.67355000  0.80187000  0.82831000  1.0
  O  O353  1  0.32645000  0.80187000  0.17169000  1.0
  O  O354  1  0.67355000  0.80187000  0.17169000  1.0
  O  O355  1  0.32645000  0.80187000  0.82831000  1.0
  O  O356  1  0.59243000  0.84579000  0.89650000  1.0
  O  O357  1  0.40757000  0.84579000  0.10350000  1.0
  O  O358  1  0.59243000  0.84579000  0.10350000  1.0
  O  O359  1  0.40757000  0.84579000  0.89650000  1.0
  O  O360  1  0.61456000  0.84140000  0.69476000  1.0
  O  O361  1  0.38544000  0.84140000  0.30524000  1.0
  O  O362  1  0.61456000  0.84140000  0.30524000  1.0
  O  O363  1  0.38544000  0.84140000  0.69476000  1.0
  O  O364  1  0.69641000  0.86875000  0.82247000  1.0
  O  O365  1  0.30359000  0.86875000  0.17753000  1.0
  O  O366  1  0.69641000  0.86875000  0.17753000  1.0
  O  O367  1  0.30359000  0.86875000  0.82247000  1.0
  O  O368  1  0.61384000  0.96608000  0.69352000  1.0
  O  O369  1  0.38616000  0.96608000  0.30648000  1.0
  O  O370  1  0.61384000  0.96608000  0.30648000  1.0
  O  O371  1  0.38616000  0.96608000  0.69352000  1.0
  O  O372  1  0.59135000  0.96315000  0.89637000  1.0
  O  O373  1  0.40865000  0.96315000  0.10363000  1.0
  O  O374  1  0.59135000  0.96315000  0.10363000  1.0
  O  O375  1  0.40865000  0.96315000  0.89637000  1.0
  O  O376  1  0.17646000  0.50413000  0.82551000  1.0
  O  O377  1  0.82354000  0.50413000  0.17449000  1.0
  O  O378  1  0.17646000  0.50413000  0.17449000  1.0
  O  O379  1  0.82354000  0.50413000  0.82551000  1.0
  O  O380  1  0.69217000  0.93652000  0.82139000  1.0
  O  O381  1  0.30783000  0.93652000  0.17861000  1.0
  O  O382  1  0.69217000  0.93652000  0.17861000  1.0
  O  O383  1  0.30783000  0.93652000  0.82139000  1.0
  O  O384  1  0.50000000  0.85782000  0.65595000  1.0
  O  O385  1  0.50000000  0.85782000  0.34405000  1.0
  O  O386  1  0.57748000  0.85095000  0.50000000  1.0
  O  O387  1  0.42252000  0.85095000  0.50000000  1.0
  O  O388  1  0.58734000  0.90343000  0.62924000  1.0
  O  O389  1  0.41266000  0.90343000  0.37076000  1.0
  O  O390  1  0.58734000  0.90343000  0.37076000  1.0
  O  O391  1  0.41266000  0.90343000  0.62924000  1.0
  O  O392  1  0.79497000  0.90546000  0.85834000  1.0
  O  O393  1  0.20503000  0.90546000  0.14166000  1.0
  O  O394  1  0.79497000  0.90546000  0.14166000  1.0
  O  O395  1  0.20503000  0.90546000  0.85834000  1.0
  O  O396  1  0.70732000  0.90321000  0.00000000  1.0
  O  O397  1  0.29268000  0.90321000  0.00000000  1.0
  O  O398  1  0.79102000  0.79429000  0.81658000  1.0
  O  O399  1  0.20898000  0.79429000  0.18342000  1.0
  O  O400  1  0.79102000  0.79429000  0.18342000  1.0
  O  O401  1  0.20898000  0.79429000  0.81658000  1.0
  O  O402  1  0.72161000  0.74061000  0.86258000  1.0
  O  O403  1  0.27839000  0.74061000  0.13742000  1.0
  O  O404  1  0.72161000  0.74061000  0.13742000  1.0
  O  O405  1  0.27839000  0.74061000  0.86258000  1.0
  O  O406  1  0.73692000  0.79079000  0.00000000  1.0
  O  O407  1  0.26308000  0.79079000  0.00000000  1.0
  O  O408  1  0.57605000  0.95597000  0.50000000  1.0
  O  O409  1  0.42395000  0.95597000  0.50000000  1.0
  O  O410  1  0.50000000  0.94878000  0.65791000  1.0
  O  O411  1  0.50000000  0.94878000  0.34209000  1.0
  O  O412  1  0.22370000  0.56384000  0.88124000  1.0
  O  O413  1  0.77630000  0.56384000  0.11876000  1.0
  O  O414  1  0.22370000  0.56384000  0.11876000  1.0
  O  O415  1  0.77630000  0.56384000  0.88124000  1.0
  O  O416  1  0.24042000  0.50917000  0.00000000  1.0
  O  O417  1  0.75958000  0.50917000  0.00000000  1.0
  O  O418  1  0.29402000  0.51390000  0.81517000  1.0
  O  O419  1  0.70598000  0.51390000  0.18483000  1.0
  O  O420  1  0.29402000  0.51390000  0.18483000  1.0
  O  O421  1  0.70598000  0.51390000  0.81517000  1.0
  O  O422  1  0.91408000  0.90099000  0.86330000  1.0
  O  O423  1  0.08592000  0.90099000  0.13670000  1.0
  O  O424  1  0.91408000  0.90099000  0.13670000  1.0
  O  O425  1  0.08592000  0.90099000  0.86330000  1.0
  O  O426  1  0.85683000  0.93989000  0.00000000  1.0
  O  O427  1  0.14317000  0.93989000  0.00000000  1.0
  O  O428  1  0.86308000  0.95907000  0.80298000  1.0
  O  O429  1  0.13692000  0.95907000  0.19702000  1.0
  O  O430  1  0.86308000  0.95907000  0.19702000  1.0
  O  O431  1  0.13692000  0.95907000  0.80298000  1.0
  O  O432  1  0.88428000  0.83756000  0.81193000  1.0
  O  O433  1  0.11572000  0.83756000  0.18807000  1.0
  O  O434  1  0.88428000  0.83756000  0.18807000  1.0
  O  O435  1  0.11572000  0.83756000  0.81193000  1.0
  O  O436  1  0.89633000  0.77614000  0.89634000  1.0
  O  O437  1  0.10367000  0.77614000  0.10366000  1.0
  O  O438  1  0.89633000  0.77614000  0.10366000  1.0
  O  O439  1  0.10367000  0.77614000  0.89634000  1.0
  O  O440  1  0.88348000  0.78289000  0.69153000  1.0
  O  O441  1  0.11652000  0.78289000  0.30847000  1.0
  O  O442  1  0.88348000  0.78289000  0.30847000  1.0
  O  O443  1  0.11652000  0.78289000  0.69153000  1.0
  O  O444  1  0.79635000  0.69039000  0.81408000  1.0
  O  O445  1  0.20365000  0.69039000  0.18592000  1.0
  O  O446  1  0.79635000  0.69039000  0.18592000  1.0
  O  O447  1  0.20365000  0.69039000  0.81408000  1.0
  O  O448  1  0.67912000  0.67803000  0.83032000  1.0
  O  O449  1  0.32088000  0.67803000  0.16968000  1.0
  O  O450  1  0.67912000  0.67803000  0.16968000  1.0
  O  O451  1  0.32088000  0.67803000  0.83032000  1.0
  O  O452  1  0.74355000  0.69143000  0.00000000  1.0
  O  O453  1  0.25645000  0.69143000  0.00000000  1.0
  O  O454  1  0.38780000  0.51435000  0.69097000  1.0
  O  O455  1  0.61220000  0.51435000  0.30903000  1.0
  O  O456  1  0.38780000  0.51435000  0.30903000  1.0
  O  O457  1  0.61220000  0.51435000  0.69097000  1.0
  O  O458  1  0.40392000  0.51555000  0.89666000  1.0
  O  O459  1  0.59608000  0.51555000  0.10334000  1.0
  O  O460  1  0.40392000  0.51555000  0.10334000  1.0
  O  O461  1  0.59608000  0.51555000  0.89666000  1.0
  O  O462  1  0.30207000  0.61146000  0.81826000  1.0
  O  O463  1  0.69793000  0.61146000  0.18174000  1.0
  O  O464  1  0.30207000  0.61146000  0.18174000  1.0
  O  O465  1  0.69793000  0.61146000  0.81826000  1.0
  O  O466  1  0.24446000  0.61776000  0.00000000  1.0
  O  O467  1  0.75554000  0.61776000  0.00000000  1.0
  O  O468  1  0.18514000  0.62389000  0.81988000  1.0
  O  O469  1  0.81486000  0.62389000  0.18012000  1.0
  O  O470  1  0.18514000  0.62389000  0.18012000  1.0
  O  O471  1  0.81486000  0.62389000  0.81988000  1.0
  O  O472  1  0.92653000  0.85050000  0.00000000  1.0
  O  O473  1  0.07347000  0.85050000  0.00000000  1.0
  O  O474  1  0.00000000  0.85450000  0.83796000  1.0
  O  O475  1  0.00000000  0.85450000  0.16204000  1.0
  O  O476  1  0.92566000  0.77537000  0.50000000  1.0
  O  O477  1  0.07434000  0.77537000  0.50000000  1.0
  O  O478  1  0.91755000  0.72174000  0.62537000  1.0
  O  O479  1  0.08245000  0.72174000  0.37463000  1.0
  O  O480  1  0.91755000  0.72174000  0.37463000  1.0
  O  O481  1  0.08245000  0.72174000  0.62537000  1.0
  O  O482  1  0.00000000  0.76946000  0.66041000  1.0
  O  O483  1  0.00000000  0.76946000  0.33959000  1.0
  O  O484  1  0.88224000  0.66170000  0.69341000  1.0
  O  O485  1  0.11776000  0.66170000  0.30659000  1.0
  O  O486  1  0.88224000  0.66170000  0.30659000  1.0
  O  O487  1  0.11776000  0.66170000  0.69341000  1.0
  O  O488  1  0.89700000  0.66538000  0.89659000  1.0
  O  O489  1  0.10300000  0.66538000  0.10341000  1.0
  O  O490  1  0.89700000  0.66538000  0.10341000  1.0
  O  O491  1  0.10300000  0.66538000  0.89659000  1.0
  O  O492  1  0.61459000  0.64069000  0.69572000  1.0
  O  O493  1  0.38541000  0.64069000  0.30428000  1.0
  O  O494  1  0.61459000  0.64069000  0.30428000  1.0
  O  O495  1  0.38541000  0.64069000  0.69572000  1.0
  O  O496  1  0.59605000  0.63411000  0.89711000  1.0
  O  O497  1  0.40395000  0.63411000  0.10289000  1.0
  O  O498  1  0.59605000  0.63411000  0.10289000  1.0
  O  O499  1  0.40395000  0.63411000  0.89711000  1.0
  O  O500  1  0.50000000  0.53444000  0.66122000  1.0
  O  O501  1  0.50000000  0.53444000  0.33878000  1.0
  O  O502  1  0.42648000  0.52706000  0.50000000  1.0
  O  O503  1  0.57352000  0.52706000  0.50000000  1.0
  O  O504  1  0.41126000  0.57860000  0.63226000  1.0
  O  O505  1  0.58874000  0.57860000  0.36774000  1.0
  O  O506  1  0.41126000  0.57860000  0.36774000  1.0
  O  O507  1  0.58874000  0.57860000  0.63226000  1.0
  O  O508  1  0.00000000  0.67370000  0.65723000  1.0
  O  O509  1  0.00000000  0.67370000  0.34277000  1.0
  O  O510  1  0.92326000  0.66827000  0.50000000  1.0
  O  O511  1  0.07674000  0.66827000  0.50000000  1.0
  O  O512  1  0.57901000  0.63016000  0.50000000  1.0
  O  O513  1  0.42099000  0.63016000  0.50000000  1.0
  O  O514  1  0.50000000  0.62375000  0.65382000  1.0
  O  O515  1  0.50000000  0.62375000  0.34618000  1.0
  O  O516  1  0.50000000  0.87191000  0.00000000  1.0
  O  O517  1  0.60396000  0.90438000  0.00000000  1.0
  O  O518  1  0.39604000  0.90438000  0.00000000  1.0
  O  O519  1  0.50000000  0.93637000  0.00000000  1.0
  O  O520  1  0.00000000  0.77595000  0.00000000  1.0
  O  O521  1  0.92990000  0.72109000  0.00000000  1.0
  O  O522  1  0.07010000  0.72109000  0.00000000  1.0
  O  O523  1  0.50000000  0.53638000  0.00000000  1.0
  O  O524  1  0.40186000  0.57469000  0.00000000  1.0
  O  O525  1  0.59814000  0.57469000  0.00000000  1.0
  O  O526  1  0.00000000  0.66622000  0.00000000  1.0
  O  O527  1  0.50000000  0.61300000  0.00000000  1.0
