# generated using pymatgen
data_SiO2
_symmetry_space_group_name_H-M   Pmmm
_cell_length_a   11.51000000
_cell_length_b   12.73300000
_cell_length_c   25.11000000
_cell_angle_alpha   90.00000000
_cell_angle_beta   90.00000000
_cell_angle_gamma   90.00000000
_symmetry_Int_Tables_number   47
_chemical_formula_structural   SiO2
_chemical_formula_sum   'Si60 O120'
_cell_volume   3680.04200130
_cell_formula_units_Z   60
loop_
 _symmetry_equiv_pos_site_id
 _symmetry_equiv_pos_as_xyz
  1  'x, y, z'
  2  '-x, -y, -z'
  3  '-x, -y, z'
  4  'x, y, -z'
  5  'x, -y, -z'
  6  '-x, y, z'
  7  '-x, y, -z'
  8  'x, -y, z'
loop_
 _atom_site_type_symbol
 _atom_site_label
 _atom_site_symmetry_multiplicity
 _atom_site_fract_x
 _atom_site_fract_y
 _atom_site_fract_z
 _atom_site_occupancy
  Si  Si0  8  0.22380000  0.19220000  0.38660000  1
  Si  Si1  8  0.25070000  0.19360000  0.16180000  1
  Si  Si2  8  0.36680000  0.12220000  0.06040000  1
  Si  Si3  8  0.36730000  0.37990000  0.22130000  1
  Si  Si4  8  0.36770000  0.37850000  0.34380000  1
  Si  Si5  4  0.00000000  0.12250000  0.19590000  1
  Si  Si6  4  0.00000000  0.12250000  0.32340000  1
  Si  Si7  4  0.13960000  0.11900000  0.50000000  1
  Si  Si8  4  0.36080000  0.00000000  0.34250000  1
  Si  Si9  4  0.36090000  0.00000000  0.22470000  1
  O  O10  8  0.11350000  0.17670000  0.17050000  1
  O  O11  8  0.11410000  0.17810000  0.34760000  1
  O  O12  8  0.18330000  0.18030000  0.44770000  1
  O  O13  8  0.28170000  0.30630000  0.37870000  1
  O  O14  8  0.28260000  0.18790000  0.09940000  1
  O  O15  8  0.28600000  0.30740000  0.18450000  1
  O  O16  8  0.31950000  0.10340000  0.37410000  1
  O  O17  8  0.32120000  0.10360000  0.19300000  1
  O  O18  8  0.35820000  0.34270000  0.28250000  1
  O  O19  4  0.00000000  0.13530000  0.25960000  1
  O  O20  4  0.30530000  0.00000000  0.28360000  1
  O  O21  4  0.32480000  0.50000000  0.21660000  1
  O  O22  4  0.33070000  0.50000000  0.34930000  1
  O  O23  4  0.33180000  0.00000000  0.06380000  1
  O  O24  4  0.35150000  0.16220000  0.00000000  1
  O  O25  4  0.50000000  0.13700000  0.07860000  1
  O  O26  4  0.50000000  0.36400000  0.36350000  1
  O  O27  4  0.50000000  0.37090000  0.20160000  1
  O  O28  2  0.00000000  0.00000000  0.18020000  1
  O  O29  2  0.00000000  0.00000000  0.33910000  1
  O  O30  2  0.00000000  0.11680000  0.50000000  1
  O  O31  2  0.18720000  0.00000000  0.50000000  1
  O  O32  2  0.50000000  0.00000000  0.23040000  1
  O  O33  2  0.50000000  0.00000000  0.33740000  1
