# generated using pymatgen
data_SiO2
_symmetry_space_group_name_H-M   'P 1'
_cell_length_a   11.51000000
_cell_length_b   12.73300000
_cell_length_c   25.11000000
_cell_angle_alpha   90.00000000
_cell_angle_beta   90.00000000
_cell_angle_gamma   90.00000000
_symmetry_Int_Tables_number   1
_chemical_formula_structural   SiO2
_chemical_formula_sum   'Si60 O120'
_cell_volume   3680.04200130
_cell_formula_units_Z   60
loop_
 _symmetry_equiv_pos_site_id
 _symmetry_equiv_pos_as_xyz
  1  'x, y, z'
loop_
 _atom_site_type_symbol
 _atom_site_label
 _atom_site_symmetry_multiplicity
 _atom_site_fract_x
 _atom_site_fract_y
 _atom_site_fract_z
 _atom_site_occupancy
  Si  Si0  1  0.22380000  0.19220000  0.38660000  1.0
  Si  Si1  1  0.77620000  0.80780000  0.61340000  1.0
  Si  Si2  1  0.77620000  0.80780000  0.38660000  1.0
  Si  Si3  1  0.22380000  0.19220000  0.61340000  1.0
  Si  Si4  1  0.22380000  0.80780000  0.61340000  1.0
  Si  Si5  1  0.77620000  0.19220000  0.38660000  1.0
  Si  Si6  1  0.77620000  0.19220000  0.61340000  1.0
  Si  Si7  1  0.22380000  0.80780000  0.38660000  1.0
  Si  Si8  1  0.25070000  0.19360000  0.16180000  1.0
  Si  Si9  1  0.74930000  0.80640000  0.83820000  1.0
  Si  Si10  1  0.74930000  0.80640000  0.16180000  1.0
  Si  Si11  1  0.25070000  0.19360000  0.83820000  1.0
  Si  Si12  1  0.25070000  0.80640000  0.83820000  1.0
  Si  Si13  1  0.74930000  0.19360000  0.16180000  1.0
  Si  Si14  1  0.74930000  0.19360000  0.83820000  1.0
  Si  Si15  1  0.25070000  0.80640000  0.16180000  1.0
  Si  Si16  1  0.36680000  0.12220000  0.06040000  1.0
  Si  Si17  1  0.63320000  0.87780000  0.93960000  1.0
  Si  Si18  1  0.63320000  0.87780000  0.06040000  1.0
  Si  Si19  1  0.36680000  0.12220000  0.93960000  1.0
  Si  Si20  1  0.36680000  0.87780000  0.93960000  1.0
  Si  Si21  1  0.63320000  0.12220000  0.06040000  1.0
  Si  Si22  1  0.63320000  0.12220000  0.93960000  1.0
  Si  Si23  1  0.36680000  0.87780000  0.06040000  1.0
  Si  Si24  1  0.36730000  0.37990000  0.22130000  1.0
  Si  Si25  1  0.63270000  0.62010000  0.77870000  1.0
  Si  Si26  1  0.63270000  0.62010000  0.22130000  1.0
  Si  Si27  1  0.36730000  0.37990000  0.77870000  1.0
  Si  Si28  1  0.36730000  0.62010000  0.77870000  1.0
  Si  Si29  1  0.63270000  0.37990000  0.22130000  1.0
  Si  Si30  1  0.63270000  0.37990000  0.77870000  1.0
  Si  Si31  1  0.36730000  0.62010000  0.22130000  1.0
  Si  Si32  1  0.36770000  0.37850000  0.34380000  1.0
  Si  Si33  1  0.63230000  0.62150000  0.65620000  1.0
  Si  Si34  1  0.63230000  0.62150000  0.34380000  1.0
  Si  Si35  1  0.36770000  0.37850000  0.65620000  1.0
  Si  Si36  1  0.36770000  0.62150000  0.65620000  1.0
  Si  Si37  1  0.63230000  0.37850000  0.34380000  1.0
  Si  Si38  1  0.63230000  0.37850000  0.65620000  1.0
  Si  Si39  1  0.36770000  0.62150000  0.34380000  1.0
  Si  Si40  1  0.00000000  0.12250000  0.19590000  1.0
  Si  Si41  1  0.00000000  0.87750000  0.80410000  1.0
  Si  Si42  1  0.00000000  0.87750000  0.19590000  1.0
  Si  Si43  1  0.00000000  0.12250000  0.80410000  1.0
  Si  Si44  1  0.00000000  0.12250000  0.32340000  1.0
  Si  Si45  1  0.00000000  0.87750000  0.67660000  1.0
  Si  Si46  1  0.00000000  0.87750000  0.32340000  1.0
  Si  Si47  1  0.00000000  0.12250000  0.67660000  1.0
  Si  Si48  1  0.13960000  0.11900000  0.50000000  1.0
  Si  Si49  1  0.86040000  0.88100000  0.50000000  1.0
  Si  Si50  1  0.13960000  0.88100000  0.50000000  1.0
  Si  Si51  1  0.86040000  0.11900000  0.50000000  1.0
  Si  Si52  1  0.36080000  0.00000000  0.34250000  1.0
  Si  Si53  1  0.63920000  0.00000000  0.65750000  1.0
  Si  Si54  1  0.63920000  0.00000000  0.34250000  1.0
  Si  Si55  1  0.36080000  0.00000000  0.65750000  1.0
  Si  Si56  1  0.36090000  0.00000000  0.22470000  1.0
  Si  Si57  1  0.63910000  0.00000000  0.77530000  1.0
  Si  Si58  1  0.63910000  0.00000000  0.22470000  1.0
  Si  Si59  1  0.36090000  0.00000000  0.77530000  1.0
  O  O60  1  0.11350000  0.17670000  0.17050000  1.0
  O  O61  1  0.88650000  0.82330000  0.82950000  1.0
  O  O62  1  0.88650000  0.82330000  0.17050000  1.0
  O  O63  1  0.11350000  0.17670000  0.82950000  1.0
  O  O64  1  0.11350000  0.82330000  0.82950000  1.0
  O  O65  1  0.88650000  0.17670000  0.17050000  1.0
  O  O66  1  0.88650000  0.17670000  0.82950000  1.0
  O  O67  1  0.11350000  0.82330000  0.17050000  1.0
  O  O68  1  0.11410000  0.17810000  0.34760000  1.0
  O  O69  1  0.88590000  0.82190000  0.65240000  1.0
  O  O70  1  0.88590000  0.82190000  0.34760000  1.0
  O  O71  1  0.11410000  0.17810000  0.65240000  1.0
  O  O72  1  0.11410000  0.82190000  0.65240000  1.0
  O  O73  1  0.88590000  0.17810000  0.34760000  1.0
  O  O74  1  0.88590000  0.17810000  0.65240000  1.0
  O  O75  1  0.11410000  0.82190000  0.34760000  1.0
  O  O76  1  0.18330000  0.18030000  0.44770000  1.0
  O  O77  1  0.81670000  0.81970000  0.55230000  1.0
  O  O78  1  0.81670000  0.81970000  0.44770000  1.0
  O  O79  1  0.18330000  0.18030000  0.55230000  1.0
  O  O80  1  0.18330000  0.81970000  0.55230000  1.0
  O  O81  1  0.81670000  0.18030000  0.44770000  1.0
  O  O82  1  0.81670000  0.18030000  0.55230000  1.0
  O  O83  1  0.18330000  0.81970000  0.44770000  1.0
  O  O84  1  0.28170000  0.30630000  0.37870000  1.0
  O  O85  1  0.71830000  0.69370000  0.62130000  1.0
  O  O86  1  0.71830000  0.69370000  0.37870000  1.0
  O  O87  1  0.28170000  0.30630000  0.62130000  1.0
  O  O88  1  0.28170000  0.69370000  0.62130000  1.0
  O  O89  1  0.71830000  0.30630000  0.37870000  1.0
  O  O90  1  0.71830000  0.30630000  0.62130000  1.0
  O  O91  1  0.28170000  0.69370000  0.37870000  1.0
  O  O92  1  0.28260000  0.18790000  0.09940000  1.0
  O  O93  1  0.71740000  0.81210000  0.90060000  1.0
  O  O94  1  0.71740000  0.81210000  0.09940000  1.0
  O  O95  1  0.28260000  0.18790000  0.90060000  1.0
  O  O96  1  0.28260000  0.81210000  0.90060000  1.0
  O  O97  1  0.71740000  0.18790000  0.09940000  1.0
  O  O98  1  0.71740000  0.18790000  0.90060000  1.0
  O  O99  1  0.28260000  0.81210000  0.09940000  1.0
  O  O100  1  0.28600000  0.30740000  0.18450000  1.0
  O  O101  1  0.71400000  0.69260000  0.81550000  1.0
  O  O102  1  0.71400000  0.69260000  0.18450000  1.0
  O  O103  1  0.28600000  0.30740000  0.81550000  1.0
  O  O104  1  0.28600000  0.69260000  0.81550000  1.0
  O  O105  1  0.71400000  0.30740000  0.18450000  1.0
  O  O106  1  0.71400000  0.30740000  0.81550000  1.0
  O  O107  1  0.28600000  0.69260000  0.18450000  1.0
  O  O108  1  0.31950000  0.10340000  0.37410000  1.0
  O  O109  1  0.68050000  0.89660000  0.62590000  1.0
  O  O110  1  0.68050000  0.89660000  0.37410000  1.0
  O  O111  1  0.31950000  0.10340000  0.62590000  1.0
  O  O112  1  0.31950000  0.89660000  0.62590000  1.0
  O  O113  1  0.68050000  0.10340000  0.37410000  1.0
  O  O114  1  0.68050000  0.10340000  0.62590000  1.0
  O  O115  1  0.31950000  0.89660000  0.37410000  1.0
  O  O116  1  0.32120000  0.10360000  0.19300000  1.0
  O  O117  1  0.67880000  0.89640000  0.80700000  1.0
  O  O118  1  0.67880000  0.89640000  0.19300000  1.0
  O  O119  1  0.32120000  0.10360000  0.80700000  1.0
  O  O120  1  0.32120000  0.89640000  0.80700000  1.0
  O  O121  1  0.67880000  0.10360000  0.19300000  1.0
  O  O122  1  0.67880000  0.10360000  0.80700000  1.0
  O  O123  1  0.32120000  0.89640000  0.19300000  1.0
  O  O124  1  0.35820000  0.34270000  0.28250000  1.0
  O  O125  1  0.64180000  0.65730000  0.71750000  1.0
  O  O126  1  0.64180000  0.65730000  0.28250000  1.0
  O  O127  1  0.35820000  0.34270000  0.71750000  1.0
  O  O128  1  0.35820000  0.65730000  0.71750000  1.0
  O  O129  1  0.64180000  0.34270000  0.28250000  1.0
  O  O130  1  0.64180000  0.34270000  0.71750000  1.0
  O  O131  1  0.35820000  0.65730000  0.28250000  1.0
  O  O132  1  0.00000000  0.13530000  0.25960000  1.0
  O  O133  1  0.00000000  0.86470000  0.74040000  1.0
  O  O134  1  0.00000000  0.86470000  0.25960000  1.0
  O  O135  1  0.00000000  0.13530000  0.74040000  1.0
  O  O136  1  0.30530000  0.00000000  0.28360000  1.0
  O  O137  1  0.69470000  0.00000000  0.71640000  1.0
  O  O138  1  0.69470000  0.00000000  0.28360000  1.0
  O  O139  1  0.30530000  0.00000000  0.71640000  1.0
  O  O140  1  0.32480000  0.50000000  0.21660000  1.0
  O  O141  1  0.67520000  0.50000000  0.78340000  1.0
  O  O142  1  0.67520000  0.50000000  0.21660000  1.0
  O  O143  1  0.32480000  0.50000000  0.78340000  1.0
  O  O144  1  0.33070000  0.50000000  0.34930000  1.0
  O  O145  1  0.66930000  0.50000000  0.65070000  1.0
  O  O146  1  0.66930000  0.50000000  0.34930000  1.0
  O  O147  1  0.33070000  0.50000000  0.65070000  1.0
  O  O148  1  0.33180000  0.00000000  0.06380000  1.0
  O  O149  1  0.66820000  0.00000000  0.93620000  1.0
  O  O150  1  0.66820000  0.00000000  0.06380000  1.0
  O  O151  1  0.33180000  0.00000000  0.93620000  1.0
  O  O152  1  0.35150000  0.16220000  0.00000000  1.0
  O  O153  1  0.64850000  0.83780000  0.00000000  1.0
  O  O154  1  0.35150000  0.83780000  0.00000000  1.0
  O  O155  1  0.64850000  0.16220000  0.00000000  1.0
  O  O156  1  0.50000000  0.13700000  0.07860000  1.0
  O  O157  1  0.50000000  0.86300000  0.92140000  1.0
  O  O158  1  0.50000000  0.86300000  0.07860000  1.0
  O  O159  1  0.50000000  0.13700000  0.92140000  1.0
  O  O160  1  0.50000000  0.36400000  0.36350000  1.0
  O  O161  1  0.50000000  0.63600000  0.63650000  1.0
  O  O162  1  0.50000000  0.63600000  0.36350000  1.0
  O  O163  1  0.50000000  0.36400000  0.63650000  1.0
  O  O164  1  0.50000000  0.37090000  0.20160000  1.0
  O  O165  1  0.50000000  0.62910000  0.79840000  1.0
  O  O166  1  0.50000000  0.62910000  0.20160000  1.0
  O  O167  1  0.50000000  0.37090000  0.79840000  1.0
  O  O168  1  0.00000000  0.00000000  0.18020000  1.0
  O  O169  1  0.00000000  0.00000000  0.81980000  1.0
  O  O170  1  0.00000000  0.00000000  0.33910000  1.0
  O  O171  1  0.00000000  0.00000000  0.66090000  1.0
  O  O172  1  0.00000000  0.11680000  0.50000000  1.0
  O  O173  1  0.00000000  0.88320000  0.50000000  1.0
  O  O174  1  0.18720000  0.00000000  0.50000000  1.0
  O  O175  1  0.81280000  0.00000000  0.50000000  1.0
  O  O176  1  0.50000000  0.00000000  0.23040000  1.0
  O  O177  1  0.50000000  0.00000000  0.76960000  1.0
  O  O178  1  0.50000000  0.00000000  0.33740000  1.0
  O  O179  1  0.50000000  0.00000000  0.66260000  1.0
